8a2aligand.pdb
 OpenBabel03122313443D

 51 57  0  0  1  0  0  0  0  0999 V2000
    1.4300   -1.5550   -1.3160 C   0  0  0  0  0  0  0  0  0  0  0  0
    2.4860   -2.1950   -0.6370 C   0  0  0  0  0  3  0  0  0  0  0  0
    3.5050   -2.7600   -1.3760 C   0  0  0  0  0  0  0  0  0  0  0  0
    3.5440   -2.6630   -2.7310 C   0  0  0  0  0  0  0  0  0  0  0  0
    2.4980   -2.0230   -3.4340 C   0  0  0  0  0  0  0  0  0  0  0  0
    2.7780   -2.0870   -4.8420 C   0  0  0  0  0  0  0  0  0  0  0  0
    3.8640   -2.8310   -5.0490 N   0  0  0  0  0  0  0  0  0  0  0  0
    4.5030   -3.1990   -3.7690 C   0  0  0  0  0  2  0  0  0  0  0  0
    2.1030   -1.5990   -5.7830 O   0  0  0  0  0  0  0  0  0  0  0  0
    1.3930   -1.4870   -2.7280 C   0  0  0  0  0  3  0  0  0  0  0  0
    4.6350   -3.4580   -0.6830 C   0  0  0  0  0  0  0  0  0  0  0  0
    4.5090   -3.1740    0.6400 F   0  0  0  0  0  0  0  0  0  0  0  0
    4.5090   -4.7930   -0.8490 F   0  0  0  0  0  0  0  0  0  0  0  0
    5.8930   -3.2970   -1.1470 F   0  0  0  0  0  0  0  0  0  0  0  0
   -0.5730   -0.5920    0.0300 C   0  0  0  0  0  0  0  0  0  0  0  0
    0.3210   -1.0290   -0.5870 C   0  0  0  0  0  0  0  0  0  0  0  0
   -3.8170    0.7400    2.4100 C   0  0  0  0  0  0  0  0  0  0  0  0
   -3.6200    1.3440    1.1660 C   0  0  0  0  0  3  0  0  0  0  0  0
   -2.5480    0.9200    0.3600 C   0  0  0  0  0  3  0  0  0  0  0  0
   -1.6750   -0.0720    0.8160 C   0  0  0  0  0  0  0  0  0  0  0  0
   -1.8950   -0.6770    2.0460 C   0  0  0  0  0  3  0  0  0  0  0  0
   -2.9610   -0.2560    2.8500 C   0  0  0  0  0  3  0  0  0  0  0  0
   -4.9580    1.1610    3.3360 C   0  0  0  0  0  2  0  0  0  0  0  0
   -6.0900    0.2120    3.2010 N   0  0  0  0  0  4  0  0  0  0  0  0
   -5.8830   -1.0180    3.9860 C   0  0  0  0  0  2  0  0  0  0  0  0
   -6.9530   -2.0370    3.5840 C   0  0  0  0  0  2  0  0  0  0  0  0
   -8.3670   -1.4740    3.8490 C   0  0  1  0  0  3  0  0  0  0  0  0
   -8.5750   -0.0870    3.2040 C   0  0  0  0  0  2  0  0  0  0  0  0
   -7.3930    0.8480    3.5150 C   0  0  0  0  0  2  0  0  0  0  0  0
   -6.1260   -0.0610    2.2400 H   0  0  0  0  0  0  0  0  0  0  0  0
   -9.4100   -2.4560    3.2900 C   0  0  0  0  0  2  0  0  0  0  0  0
   -9.3420   -3.7050    4.0060 O   0  0  0  0  0  0  0  0  0  0  0  0
  -10.0230   -4.3380    3.6370 H   0  0  0  0  0  0  0  0  0  0  0  0
    4.4260   -3.0450   -6.3550 C   0  0  1  0  0  3  0  0  0  0  0  0
    5.3080   -1.8500   -6.6990 C   0  0  0  0  0  0  0  0  0  0  0  0
    5.2890   -1.5000   -8.0110 N   0  0  0  0  0  0  0  0  0  0  0  0
    6.1280   -0.4810   -8.4640 C   0  0  0  0  0  0  0  0  0  0  0  0
    7.2370    0.4320   -7.4880 S   0  0  0  0  0  0  0  0  0  0  0  0
    7.7570    1.3400   -8.9010 C   0  0  0  0  0  3  0  0  0  0  0  0
    7.0610    0.8400   -9.9340 C   0  0  0  0  0  3  0  0  0  0  0  0
    6.1860   -0.1460   -9.7010 N   0  0  0  0  0  0  0  0  0  0  0  0
    5.9140   -1.2510   -5.7750 O   0  0  0  0  0  0  0  0  0  0  0  0
    4.6780   -1.9690   -8.6480 H   0  0  0  0  0  0  0  0  0  0  0  0
    5.2190   -4.3060   -6.3750 C   0  0  0  0  0  0  0  0  0  0  0  0
    6.4920   -4.4720   -6.7870 C   0  0  0  0  0  0  0  0  0  0  0  0
    7.6480   -3.7130   -7.4020 C   0  0  0  0  0  3  0  0  0  0  0  0
    8.8160   -4.7200   -7.4700 C   0  0  0  0  0  3  0  0  0  0  0  0
    8.1740   -6.0790   -7.0550 C   0  0  0  0  0  2  0  0  0  0  0  0
    6.8100   -5.7780   -6.5790 N   0  0  0  0  0  0  0  0  0  0  0  0
    5.7360   -6.4160   -6.0930 C   0  0  0  0  0  3  0  0  0  0  0  0
    4.8020   -5.5260   -5.9150 N   0  0  0  0  0  0  0  0  0  0  0  0
  1  2  1  0  0  0  0
  1 16  1  0  0  0  0
  3 11  1  0  0  0  0
  3  2  2  0  0  0  0
  4  3  1  0  0  0  0
  5  4  2  0  0  0  0
  5 10  1  0  0  0  0
  6  5  1  0  0  0  0
  7  6  1  0  0  0  0
  7  8  1  0  0  0  0
  8  4  1  0  0  0  0
  9  6  2  0  0  0  0
 10  1  2  0  0  0  0
 11 12  1  0  0  0  0
 13 11  1  0  0  0  0
 14 11  1  0  0  0  0
 15 20  1  0  0  0  0
 16 15  3  0  0  0  0
 17 22  1  0  0  0  0
 17 23  1  0  0  0  0
 18 17  2  0  0  0  0
 19 20  2  0  0  0  0
 19 18  1  0  0  0  0
 20 21  1  0  0  0  0
 21 22  2  0  0  0  0
 24 23  1  0  0  0  0
 24 29  1  0  0  0  0
 24 25  1  0  0  0  0
 26 27  1  0  0  0  0
 26 25  1  0  0  0  0
 27 31  1  6  0  0  0
 28 29  1  0  0  0  0
 28 27  1  0  0  0  0
 30 24  1  0  0  0  0
 31 32  1  0  0  0  0
 33 32  1  0  0  0  0
 34 35  1  1  0  0  0
 34  7  1  0  0  0  0
 35 42  2  0  0  0  0
 36 35  1  0  0  0  0
 37 36  1  0  0  0  0
 37 38  1  0  0  0  0
 39 38  1  0  0  0  0
 40 41  1  0  0  0  0
 40 39  2  0  0  0  0
 41 37  2  0  0  0  0
 43 36  1  0  0  0  0
 44 34  1  0  0  0  0
 44 51  1  0  0  0  0
 45 49  1  0  0  0  0
 45 44  2  0  0  0  0
 46 45  1  0  0  0  0
 47 46  2  0  0  0  0
 47 48  1  0  0  0  0
 48 49  1  0  0  0  0
 49 50  1  0  0  0  0
 50 51  2  0  0  0  0
M  END
>  <REMARK>
  Name = 8a2aligand.pdb
  10 active torsions:
  status: ('A' for Active; 'I' for Inactive)
    1  A    between atoms: N1_1  and  C2_2
    2  A    between atoms: C2_2  and  C3_3
    3  A    between atoms: C6_6  and  C7_7
    4  A    between atoms: C8_8  and  C9_9
    5  A    between atoms: C11_11  and  C12_12
    6  A    between atoms: N19_16  and  C20_17
    7  A    between atoms: C20_17  and  C21_18
    8  A    between atoms: C20_17  and  C29_26
    9  A    between atoms: C44_41  and  C47_44
   10  A    between atoms: C47_44  and  O48_45
                            x       y       z     vdW  Elec       q    Type
                         _______ _______ _______ _____ _____    ______ ____

>  <TORSDO>
F 10

$$$$
