=
 OpenBabel03122313433D

 22 25  0  0  0  0  0  0  0  0999 V2000
   -1.3660   -0.5980    0.9880 C   0  0  0  0  0  0  0  0  0  0  0  0
   -1.6200   -1.2570    2.3110 N   0  0  0  0  0  0  0  0  0  0  0  0
   -2.7750   -0.5560    2.9640 N   0  0  0  0  0  0  0  0  0  0  0  0
   -3.4670   -0.7720    4.2770 C   0  0  0  0  0  3  0  0  0  0  0  0
   -4.6180    0.1050    4.6710 C   0  0  0  0  0  3  0  0  0  0  0  0
   -5.0780    1.1970    3.7510 C   0  0  0  0  0  3  0  0  0  0  0  0
   -4.3860    1.4130    2.4380 C   0  0  0  0  0  3  0  0  0  0  0  0
   -3.2340    0.5360    2.0440 C   0  0  0  0  0  0  0  0  0  0  0  0
   -2.3640    0.5100    0.8230 C   0  0  0  0  0  0  0  0  0  0  0  0
    2.8920   -2.1240   -2.9540 F   0  0  0  0  0  0  0  0  0  0  0  0
    1.8270   -1.7430   -1.9690 C   0  0  0  0  0  0  0  0  0  0  0  0
    2.1200   -0.7270   -0.9040 C   0  0  0  0  0  3  0  0  0  0  0  0
    1.0550   -0.3460    0.0810 C   0  0  0  0  0  3  0  0  0  0  0  0
   -0.3020   -0.9790    0.0020 C   0  0  0  0  0  0  0  0  0  0  0  0
   -0.5950   -1.9950   -1.0620 C   0  0  0  0  0  3  0  0  0  0  0  0
    0.4700   -2.3760   -2.0480 C   0  0  0  0  0  3  0  0  0  0  0  0
   -2.4720    1.4310   -0.3560 C   0  0  0  0  0  0  0  0  0  0  0  0
   -2.7660    2.8870   -0.1460 C   0  0  0  0  0  3  0  0  0  0  0  0
   -2.8740    3.8080   -1.3250 C   0  0  0  0  0  3  0  0  0  0  0  0
   -2.6880    3.2730   -2.7140 N   0  0  0  0  0  0  0  0  0  0  0  0
   -2.3940    1.8170   -2.9240 C   0  0  0  0  0  3  0  0  0  0  0  0
   -2.2860    0.8960   -1.7450 C   0  0  0  0  0  3  0  0  0  0  0  0
  1  2  2  0  0  0  0
  2  3  1  0  0  0  0
  3  4  1  0  0  0  0
  4  5  2  0  0  0  0
  6  5  1  0  0  0  0
  7  6  2  0  0  0  0
  8  7  1  0  0  0  0
  8  3  1  0  0  0  0
  9  1  1  0  0  0  0
  9  8  2  0  0  0  0
 10 11  1  0  0  0  0
 11 12  1  0  0  0  0
 12 13  2  0  0  0  0
 14 13  1  0  0  0  0
 14  1  1  0  0  0  0
 15 14  2  0  0  0  0
 16 11  2  0  0  0  0
 16 15  1  0  0  0  0
 17 18  1  0  0  0  0
 17  9  1  0  0  0  0
 19 18  2  0  0  0  0
 20 19  1  0  0  0  0
 21 20  2  0  0  0  0
 21 22  1  0  0  0  0
 22 17  2  0  0  0  0
M  END
>  <MODEL>
       2

>  <REMARK>
  Name = 
  2 active torsions:
  status: ('A' for Active; 'I' for Inactive)
    1  A    between atoms: C_1  and  C_14
    2  A    between atoms: C_9  and  C_17
                            x       y       z     vdW  Elec       q    Type
                         _______ _______ _______ _____ _____    ______ ____

>  <TORSDO>
F 2

$$$$
=
 OpenBabel03122313433D

 22 25  0  0  0  0  0  0  0  0999 V2000
    2.5690   -1.5470   -4.4810 C   0  0  0  0  0  0  0  0  0  0  0  0
    1.4140   -0.7730   -5.0420 N   0  0  0  0  0  0  0  0  0  0  0  0
    0.4800   -0.4490   -3.9140 N   0  0  0  0  0  0  0  0  0  0  0  0
   -0.8220    0.2950   -3.8700 C   0  0  0  0  0  3  0  0  0  0  0  0
   -1.5450    0.4650   -2.5670 C   0  0  0  0  0  3  0  0  0  0  0  0
   -0.9660   -0.1080   -1.3080 C   0  0  0  0  0  3  0  0  0  0  0  0
    0.3360   -0.8520   -1.3510 C   0  0  0  0  0  3  0  0  0  0  0  0
    1.0590   -1.0220   -2.6540 C   0  0  0  0  0  0  0  0  0  0  0  0
    2.3500   -1.7010   -3.0050 C   0  0  0  0  0  0  0  0  0  0  0  0
    7.2460   -3.6580   -7.5900 F   0  0  0  0  0  0  0  0  0  0  0  0
    6.0770   -3.1300   -6.8130 C   0  0  0  0  0  0  0  0  0  0  0  0
    4.9810   -4.0600   -6.3830 C   0  0  0  0  0  3  0  0  0  0  0  0
    3.8120   -3.5320   -5.6060 C   0  0  0  0  0  3  0  0  0  0  0  0
    3.7390   -2.0750   -5.2580 C   0  0  0  0  0  0  0  0  0  0  0  0
    4.8350   -1.1450   -5.6870 C   0  0  0  0  0  3  0  0  0  0  0  0
    6.0040   -1.6730   -6.4650 C   0  0  0  0  0  3  0  0  0  0  0  0
    3.2620   -2.4090   -2.0470 C   0  0  0  0  0  0  0  0  0  0  0  0
    3.5750   -1.7940   -0.7150 C   0  0  0  0  0  3  0  0  0  0  0  0
    4.4870   -2.5020    0.2420 C   0  0  0  0  0  3  0  0  0  0  0  0
    5.0850   -3.8260   -0.1320 N   0  0  0  0  0  0  0  0  0  0  0  0
    4.7720   -4.4410   -1.4630 C   0  0  0  0  0  3  0  0  0  0  0  0
    3.8610   -3.7330   -2.4210 C   0  0  0  0  0  3  0  0  0  0  0  0
  1  9  1  0  0  0  0
  2  1  2  0  0  0  0
  2  3  1  0  0  0  0
  3  4  1  0  0  0  0
  3  8  1  0  0  0  0
  4  5  2  0  0  0  0
  5  6  1  0  0  0  0
  7  6  2  0  0  0  0
  8  7  1  0  0  0  0
  9  8  2  0  0  0  0
  9 17  1  0  0  0  0
 10 11  1  0  0  0  0
 11 16  2  0  0  0  0
 11 12  1  0  0  0  0
 12 13  2  0  0  0  0
 13 14  1  0  0  0  0
 14  1  1  0  0  0  0
 15 14  2  0  0  0  0
 16 15  1  0  0  0  0
 17 18  1  0  0  0  0
 18 19  2  0  0  0  0
 20 19  1  0  0  0  0
 21 20  2  0  0  0  0
 22 17  2  0  0  0  0
 22 21  1  0  0  0  0
M  END
>  <MODEL>
       3

>  <REMARK>
  Name = 
  2 active torsions:
  status: ('A' for Active; 'I' for Inactive)
    1  A    between atoms: C_1  and  C_14
    2  A    between atoms: C_9  and  C_17
                            x       y       z     vdW  Elec       q    Type
                         _______ _______ _______ _____ _____    ______ ____

>  <TORSDO>
F 2

$$$$
=
 OpenBabel03122313433D

 22 25  0  0  0  0  0  0  0  0999 V2000
   -4.0700    0.3140    2.6120 C   0  0  0  0  0  0  0  0  0  0  0  0
   -3.5840   -0.0940    3.9710 N   0  0  0  0  0  0  0  0  0  0  0  0
   -4.7120    0.0900    4.9420 N   0  0  0  0  0  0  0  0  0  0  0  0
   -4.8150   -0.1500    6.4190 C   0  0  0  0  0  3  0  0  0  0  0  0
   -6.1010    0.1330    7.1370 C   0  0  0  0  0  3  0  0  0  0  0  0
   -7.2850    0.6550    6.3780 C   0  0  0  0  0  3  0  0  0  0  0  0
   -7.1820    0.8950    4.9010 C   0  0  0  0  0  3  0  0  0  0  0  0
   -5.8960    0.6130    4.1830 C   0  0  0  0  0  0  0  0  0  0  0  0
   -5.4990    0.7500    2.7430 C   0  0  0  0  0  0  0  0  0  0  0  0
   -0.8620    0.2160   -2.4570 F   0  0  0  0  0  0  0  0  0  0  0  0
   -1.6640    0.2400   -1.1900 C   0  0  0  0  0  0  0  0  0  0  0  0
   -2.3820    1.4920   -0.7810 C   0  0  0  0  0  3  0  0  0  0  0  0
   -3.1840    1.5160    0.4860 C   0  0  0  0  0  3  0  0  0  0  0  0
   -3.2680    0.2890    1.3450 C   0  0  0  0  0  0  0  0  0  0  0  0
   -2.5490   -0.9620    0.9360 C   0  0  0  0  0  3  0  0  0  0  0  0
   -1.7470   -0.9870   -0.3310 C   0  0  0  0  0  3  0  0  0  0  0  0
   -6.3770    1.2400    1.6290 C   0  0  0  0  0  0  0  0  0  0  0  0
   -7.1040    0.2570    0.7610 C   0  0  0  0  0  3  0  0  0  0  0  0
   -7.9820    0.7460   -0.3530 C   0  0  0  0  0  3  0  0  0  0  0  0
   -8.1330    2.2180   -0.5980 N   0  0  0  0  0  0  0  0  0  0  0  0
   -7.4050    3.2010    0.2710 C   0  0  0  0  0  3  0  0  0  0  0  0
   -6.5270    2.7120    1.3840 C   0  0  0  0  0  3  0  0  0  0  0  0
  1  9  1  0  0  0  0
  1  2  2  0  0  0  0
  2  3  1  0  0  0  0
  3  4  1  0  0  0  0
  4  5  2  0  0  0  0
  6  5  1  0  0  0  0
  7  6  2  0  0  0  0
  8  7  1  0  0  0  0
  8  3  1  0  0  0  0
  9  8  2  0  0  0  0
 10 11  1  0  0  0  0
 11 12  2  0  0  0  0
 11 16  1  0  0  0  0
 12 13  1  0  0  0  0
 13 14  2  0  0  0  0
 14  1  1  0  0  0  0
 15 14  1  0  0  0  0
 16 15  2  0  0  0  0
 17  9  1  0  0  0  0
 18 17  2  0  0  0  0
 19 18  1  0  0  0  0
 20 19  2  0  0  0  0
 20 21  1  0  0  0  0
 21 22  2  0  0  0  0
 22 17  1  0  0  0  0
M  END
>  <MODEL>
       4

>  <REMARK>
  Name = 
  2 active torsions:
  status: ('A' for Active; 'I' for Inactive)
    1  A    between atoms: C_1  and  C_14
    2  A    between atoms: C_9  and  C_17
                            x       y       z     vdW  Elec       q    Type
                         _______ _______ _______ _____ _____    ______ ____

>  <TORSDO>
F 2

$$$$
=
 OpenBabel03122313433D

 24 26  0  0  0  0  0  0  0  0999 V2000
    1.4910   -1.2220   -0.1540 N   0  0  0  0  0  0  0  0  0  0  0  0
    2.6920   -1.8750   -0.7720 C   0  0  0  0  0  0  0  0  0  0  0  0
    3.8180   -2.3500    0.0980 N   0  0  0  0  0  0  0  0  0  0  0  0
    5.0190   -3.0020   -0.5200 C   0  0  0  0  0  3  0  0  0  0  0  0
    5.0940   -3.1790   -2.0080 N   0  0  0  0  0  0  0  0  0  0  0  0
    3.9680   -2.7040   -2.8770 C   0  0  0  0  0  0  0  0  0  0  0  0
    2.7670   -2.0520   -2.2590 C   0  0  0  0  0  0  0  0  0  0  0  0
    1.8190   -1.6870   -3.3630 N   0  0  0  0  0  0  0  0  0  0  0  0
    2.4330   -2.1130   -4.6620 C   0  0  0  0  0  3  0  0  0  0  0  0
    3.7620   -2.7420   -4.3620 N   0  0  0  0  0  0  0  0  0  0  0  0
    1.4420   -1.1060    0.8230 H   0  0  0  0  0  0  0  0  0  0  0  0
    0.7520   -0.9100   -0.7240 H   0  0  0  0  0  0  0  0  0  0  0  0
    4.7160   -3.3090   -5.3710 C   0  0  0  0  0  0  0  0  0  0  0  0
    5.3460   -4.6700   -5.3210 O   0  0  0  0  0  0  0  0  0  0  0  0
    6.2280   -4.8170   -6.5250 C   0  0  0  0  0  0  0  0  0  0  0  0
    6.1430   -3.5480   -7.3200 C   0  0  0  0  0  0  0  0  0  0  0  0
    5.2090   -2.6160   -6.6060 C   0  0  0  0  0  0  0  0  0  0  0  0
    6.8660   -3.2600   -8.6030 O   0  0  0  0  0  0  0  0  0  0  0  0
    6.7470   -2.4060   -9.0450 H   0  0  0  0  0  0  0  0  0  0  0  0
    4.8330   -1.2330   -7.0510 O   0  0  0  0  0  0  0  0  0  0  0  0
    4.2180   -0.7040   -6.5200 H   0  0  0  0  0  0  0  0  0  0  0  0
    7.0500   -6.0220   -6.8740 C   0  0  0  0  0  2  0  0  0  0  0  0
    7.9450   -5.9970   -8.0780 O   0  0  0  0  0  0  0  0  0  0  0  0
    7.9910   -5.2020   -8.6310 H   0  0  0  0  0  0  0  0  0  0  0  0
  1 11  1  0  0  0  0
  2  1  1  0  0  0  0
  2  3  1  0  0  0  0
  4  3  2  0  0  0  0
  5  4  1  0  0  0  0
  6  7  1  0  0  0  0
  6  5  2  0  0  0  0
  7  2  2  0  0  0  0
  8  7  1  0  0  0  0
  9 10  1  0  0  0  0
  9  8  2  0  0  0  0
 10  6  1  0  0  0  0
 12  1  1  0  0  0  0
 13 14  1  0  0  0  0
 13 10  1  0  0  0  0
 15 14  1  0  0  0  0
 16 17  1  0  0  0  0
 16 15  2  0  0  0  0
 17 13  2  0  0  0  0
 18 16  1  0  0  0  0
 19 18  1  0  0  0  0
 20 17  1  0  0  0  0
 20 21  1  0  0  0  0
 22 15  1  0  0  0  0
 23 22  1  0  0  0  0
 24 23  1  0  0  0  0
M  END
>  <MODEL>
       2

>  <REMARK>
  Name = 
  5 active torsions:
  status: ('A' for Active; 'I' for Inactive)
    1  A    between atoms: N9_10  and  C1*_13
    2  A    between atoms: C4*_15  and  C5*_22
    3  A    between atoms: C3*_16  and  O3*_17
    4  A    between atoms: C2*_18  and  O2*_19
    5  A    between atoms: C5*_22  and  O5*_23
                            x       y       z     vdW  Elec       q    Type
                         _______ _______ _______ _____ _____    ______ ____

>  <TORSDO>
F 5

$$$$
=
 OpenBabel03122313433D

 24 26  0  0  0  0  0  0  0  0999 V2000
    1.8080   -1.2250   -0.1490 N   0  0  0  0  0  0  0  0  0  0  0  0
    2.1510   -1.4430   -1.5930 C   0  0  0  0  0  0  0  0  0  0  0  0
    1.2050   -0.9890   -2.6650 N   0  0  0  0  0  0  0  0  0  0  0  0
    1.5470   -1.2070   -4.1090 C   0  0  0  0  0  3  0  0  0  0  0  0
    2.8350   -1.8790   -4.4810 N   0  0  0  0  0  0  0  0  0  0  0  0
    3.7810   -2.3340   -3.4090 C   0  0  0  0  0  0  0  0  0  0  0  0
    3.4390   -2.1160   -1.9650 C   0  0  0  0  0  0  0  0  0  0  0  0
    4.5590   -2.6670   -1.1350 N   0  0  0  0  0  0  0  0  0  0  0  0
    5.5940   -3.2260   -2.0650 C   0  0  0  0  0  3  0  0  0  0  0  0
    5.1130   -3.0200   -3.4710 N   0  0  0  0  0  0  0  0  0  0  0  0
    0.9630   -0.7830    0.0950 H   0  0  0  0  0  0  0  0  0  0  0  0
    2.4290   -1.5230    0.5550 H   0  0  0  0  0  0  0  0  0  0  0  0
    5.8380   -3.4290   -4.7190 C   0  0  0  0  0  0  0  0  0  0  0  0
    6.8060   -4.5670   -4.8440 O   0  0  0  0  0  0  0  0  0  0  0  0
    7.2870   -4.6130   -6.2640 C   0  0  0  0  0  0  0  0  0  0  0  0
    6.6160   -3.5020   -7.0170 C   0  0  0  0  0  0  0  0  0  0  0  0
    5.7200   -2.7710   -6.0620 C   0  0  0  0  0  0  0  0  0  0  0  0
    6.8080   -3.1800   -8.4690 O   0  0  0  0  0  0  0  0  0  0  0  0
    6.3270   -2.4380   -8.8690 H   0  0  0  0  0  0  0  0  0  0  0  0
    4.8580   -1.5880   -6.3920 O   0  0  0  0  0  0  0  0  0  0  0  0
    4.3100   -1.1810   -5.7040 H   0  0  0  0  0  0  0  0  0  0  0  0
    8.2680   -5.5960   -6.8320 C   0  0  0  0  0  2  0  0  0  0  0  0
    9.0790   -6.4620   -5.9140 O   0  0  0  0  0  0  0  0  0  0  0  0
    8.9690   -6.3860   -4.9530 H   0  0  0  0  0  0  0  0  0  0  0  0
  1 11  1  0  0  0  0
  1 12  1  0  0  0  0
  2  1  1  0  0  0  0
  3  2  2  0  0  0  0
  4  3  1  0  0  0  0
  5  4  2  0  0  0  0
  5  6  1  0  0  0  0
  6  7  2  0  0  0  0
  7  2  1  0  0  0  0
  7  8  1  0  0  0  0
  9  8  2  0  0  0  0
 10  6  1  0  0  0  0
 10  9  1  0  0  0  0
 13 10  1  0  0  0  0
 14 13  1  0  0  0  0
 15 14  1  0  0  0  0
 16 15  2  0  0  0  0
 16 17  1  0  0  0  0
 17 13  2  0  0  0  0
 18 16  1  0  0  0  0
 19 18  1  0  0  0  0
 20 17  1  0  0  0  0
 20 21  1  0  0  0  0
 22 15  1  0  0  0  0
 22 23  1  0  0  0  0
 23 24  1  0  0  0  0
M  END
>  <MODEL>
       3

>  <REMARK>
  Name = 
  5 active torsions:
  status: ('A' for Active; 'I' for Inactive)
    1  A    between atoms: N9_10  and  C1*_13
    2  A    between atoms: C4*_15  and  C5*_22
    3  A    between atoms: C3*_16  and  O3*_17
    4  A    between atoms: C2*_18  and  O2*_19
    5  A    between atoms: C5*_22  and  O5*_23
                            x       y       z     vdW  Elec       q    Type
                         _______ _______ _______ _____ _____    ______ ____

>  <TORSDO>
F 5

$$$$
=
 OpenBabel03122313433D

 24 26  0  0  0  0  0  0  0  0999 V2000
    8.3600   -4.2700   -8.6050 N   0  0  0  0  0  0  0  0  0  0  0  0
    7.3810   -4.6570   -7.5360 C   0  0  0  0  0  0  0  0  0  0  0  0
    6.9770   -6.0920   -7.3730 N   0  0  0  0  0  0  0  0  0  0  0  0
    5.9980   -6.4790   -6.3040 C   0  0  0  0  0  3  0  0  0  0  0  0
    5.4240   -5.4310   -5.3980 N   0  0  0  0  0  0  0  0  0  0  0  0
    5.8290   -3.9960   -5.5610 C   0  0  0  0  0  0  0  0  0  0  0  0
    6.8070   -3.6090   -6.6290 C   0  0  0  0  0  0  0  0  0  0  0  0
    7.0170   -2.1260   -6.5510 N   0  0  0  0  0  0  0  0  0  0  0  0
    6.1680   -1.5960   -5.4340 C   0  0  0  0  0  3  0  0  0  0  0  0
    5.4330   -2.7520   -4.8220 N   0  0  0  0  0  0  0  0  0  0  0  0
    8.7370   -4.9580   -9.2000 H   0  0  0  0  0  0  0  0  0  0  0  0
    8.6260   -3.3280   -8.7110 H   0  0  0  0  0  0  0  0  0  0  0  0
    4.4720   -2.6770   -3.6720 C   0  0  0  0  0  0  0  0  0  0  0  0
    4.8300   -2.7550   -2.2180 O   0  0  0  0  0  0  0  0  0  0  0  0
    3.5630   -2.6370   -1.4220 C   0  0  0  0  0  0  0  0  0  0  0  0
    2.4240   -2.4850   -2.3850 C   0  0  0  0  0  0  0  0  0  0  0  0
    2.9850   -2.5100   -3.7760 C   0  0  0  0  0  0  0  0  0  0  0  0
    0.9760   -2.3350   -2.0220 O   0  0  0  0  0  0  0  0  0  0  0  0
    0.3080   -2.2430   -2.7190 H   0  0  0  0  0  0  0  0  0  0  0  0
    2.1980   -2.3880   -5.0470 O   0  0  0  0  0  0  0  0  0  0  0  0
    2.6520   -2.4150   -5.9040 H   0  0  0  0  0  0  0  0  0  0  0  0
    3.4560   -2.6660    0.0730 C   0  0  0  0  0  2  0  0  0  0  0  0
    4.6000   -3.1760    0.8980 O   0  0  0  0  0  0  0  0  0  0  0  0
    5.4100   -3.4880    0.4640 H   0  0  0  0  0  0  0  0  0  0  0  0
  1  2  1  0  0  0  0
  2  3  2  0  0  0  0
  2  7  1  0  0  0  0
  3  4  1  0  0  0  0
  4  5  2  0  0  0  0
  6  5  1  0  0  0  0
  6 10  1  0  0  0  0
  7  8  1  0  0  0  0
  7  6  2  0  0  0  0
  8  9  2  0  0  0  0
  9 10  1  0  0  0  0
 10 13  1  0  0  0  0
 11  1  1  0  0  0  0
 12  1  1  0  0  0  0
 13 14  1  0  0  0  0
 14 15  1  0  0  0  0
 15 22  1  0  0  0  0
 16 18  1  0  0  0  0
 16 15  2  0  0  0  0
 17 13  2  0  0  0  0
 17 16  1  0  0  0  0
 19 18  1  0  0  0  0
 20 17  1  0  0  0  0
 21 20  1  0  0  0  0
 22 23  1  0  0  0  0
 24 23  1  0  0  0  0
M  END
>  <MODEL>
       4

>  <REMARK>
  Name = 
  5 active torsions:
  status: ('A' for Active; 'I' for Inactive)
    1  A    between atoms: N9_10  and  C1*_13
    2  A    between atoms: C4*_15  and  C5*_22
    3  A    between atoms: C3*_16  and  O3*_17
    4  A    between atoms: C2*_18  and  O2*_19
    5  A    between atoms: C5*_22  and  O5*_23
                            x       y       z     vdW  Elec       q    Type
                         _______ _______ _______ _____ _____    ______ ____

>  <TORSDO>
F 5

$$$$
=
 OpenBabel03122313433D

 30 33  0  0  1  0  0  0  0  0999 V2000
    5.1680   -2.9620   -3.7740 C   0  0  0  0  0  0  0  0  0  0  0  0
    4.6830   -2.1540   -4.9410 N   0  0  0  0  0  0  0  0  0  0  0  0
    5.2970   -2.3500   -6.2960 C   0  0  1  0  0  3  0  0  0  0  0  0
    6.3950   -3.3540   -6.4830 C   0  0  0  0  0  0  0  0  0  0  0  0
    7.0090   -3.5500   -7.8380 C   0  0  0  0  0  3  0  0  0  0  0  0
    8.1070   -4.5540   -8.0260 C   0  0  0  0  0  3  0  0  0  0  0  0
    8.5920   -5.3620   -6.8590 C   0  0  0  0  0  3  0  0  0  0  0  0
    7.9790   -5.1660   -5.5040 C   0  0  0  0  0  3  0  0  0  0  0  0
    6.8800   -4.1620   -5.3160 C   0  0  0  0  0  0  0  0  0  0  0  0
    6.2670   -3.9660   -3.9620 N   0  0  0  0  0  2  0  0  0  0  0  0
    4.8110   -1.5420   -7.4630 N   0  0  0  0  0  0  0  0  0  0  0  0
    3.8710   -1.6060   -7.7490 H   0  0  0  0  0  0  0  0  0  0  0  0
    5.7580   -0.6380   -8.1940 C   0  0  0  0  0  0  0  0  0  0  0  0
    6.8280    0.2090   -7.5700 C   0  0  0  0  0  3  0  0  0  0  0  0
    7.5320    0.9490   -8.6680 C   0  0  0  0  0  3  0  0  0  0  0  0
    6.8980    0.5600   -9.9700 N   0  0  0  0  0  0  0  0  0  0  0  0
    5.8010   -0.4200   -9.6770 N   0  0  0  0  0  0  0  0  0  0  0  0
    7.1560    0.8910  -10.8610 H   0  0  0  0  0  0  0  0  0  0  0  0
    2.7420   -1.6840   -0.9050 C   0  0  0  0  0  0  0  0  0  0  0  0
    3.3280   -2.3740    0.2900 C   0  0  0  0  0  3  0  0  0  0  0  0
    4.5280   -3.2600    0.1320 C   0  0  0  0  0  3  0  0  0  0  0  0
    5.1420   -3.4560   -1.2230 C   0  0  0  0  0  3  0  0  0  0  0  0
    4.5550   -2.7660   -2.4190 C   0  0  0  0  0  0  0  0  0  0  0  0
    3.3550   -1.8800   -2.2600 C   0  0  0  0  0  3  0  0  0  0  0  0
    0.1770   -1.3130   -1.0990 C   0  0  0  0  0  0  0  0  0  0  0  0
    0.0130   -2.7130   -1.6100 O   0  0  0  0  0  0  0  0  0  0  0  0
    1.5420   -0.7980   -0.7470 N   0  0  0  0  0  0  0  0  0  0  0  0
    1.6490    0.1210   -0.4110 H   0  0  0  0  0  0  0  0  0  0  0  0
   -1.5530    0.3360   -2.1180 C   0  0  0  0  0  1  0  0  0  0  0  0
   -1.0220   -0.4270   -0.9400 C   0  0  0  0  0  2  0  0  0  0  0  0
  1 23  1  0  0  0  0
  2  1  2  0  0  0  0
  3 11  1  6  0  0  0
  3  2  1  0  0  0  0
  4  3  1  0  0  0  0
  4  9  1  0  0  0  0
  5  4  2  0  0  0  0
  6  5  1  0  0  0  0
  6  7  2  0  0  0  0
  7  8  1  0  0  0  0
  8  9  2  0  0  0  0
  9 10  1  0  0  0  0
 10  1  1  0  0  0  0
 12 11  1  0  0  0  0
 13 14  1  0  0  0  0
 13 11  1  0  0  0  0
 15 14  2  0  0  0  0
 16 17  1  0  0  0  0
 16 15  1  0  0  0  0
 17 13  2  0  0  0  0
 18 16  1  0  0  0  0
 19 27  1  0  0  0  0
 19 20  1  0  0  0  0
 21 20  2  0  0  0  0
 22 21  1  0  0  0  0
 23 24  1  0  0  0  0
 23 22  2  0  0  0  0
 24 19  2  0  0  0  0
 25 30  1  0  0  0  0
 25 27  1  0  0  0  0
 26 25  2  0  0  0  0
 27 28  1  0  0  0  0
 29 30  1  0  0  0  0
M  END
>  <MODEL>
       2

>  <REMARK>
  Name = 
  4 active torsions:
  status: ('A' for Active; 'I' for Inactive)
    1  A    between atoms: C_1  and  C_15
    2  A    between atoms: C_3  and  N_23
    3  A    between atoms: C_11  and  N_19
    4  A    between atoms: C_17  and  C_22
                            x       y       z     vdW  Elec       q    Type
                         _______ _______ _______ _____ _____    ______ ____

>  <TORSDO>
F 4

$$$$
=
 OpenBabel03122313433D

 30 33  0  0  1  0  0  0  0  0999 V2000
   -0.0520   -0.2830   -0.9650 C   0  0  0  0  0  0  0  0  0  0  0  0
   -0.5160   -0.0530    0.4430 N   0  0  0  0  0  0  0  0  0  0  0  0
   -1.7370    0.7770    0.7040 C   0  0  2  0  0  3  0  0  0  0  0  0
   -2.4950    1.3780   -0.4430 C   0  0  0  0  0  0  0  0  0  0  0  0
   -3.7160    2.2090   -0.1820 C   0  0  0  0  0  3  0  0  0  0  0  0
   -4.4730    2.8100   -1.3290 C   0  0  0  0  0  3  0  0  0  0  0  0
   -4.0100    2.5810   -2.7370 C   0  0  0  0  0  3  0  0  0  0  0  0
   -2.7880    1.7500   -2.9980 C   0  0  0  0  0  3  0  0  0  0  0  0
   -2.0310    1.1490   -1.8510 C   0  0  0  0  0  0  0  0  0  0  0  0
   -0.8090    0.3180   -2.1120 N   0  0  0  0  0  2  0  0  0  0  0  0
   -2.2010    1.0070    2.1110 N   0  0  0  0  0  0  0  0  0  0  0  0
   -2.0320    1.8710    2.5510 H   0  0  0  0  0  0  0  0  0  0  0  0
   -2.9240   -0.0810    2.8500 C   0  0  0  0  0  0  0  0  0  0  0  0
   -4.3080    0.0100    3.4200 C   0  0  0  0  0  3  0  0  0  0  0  0
   -4.6290   -1.3040    4.0700 C   0  0  0  0  0  3  0  0  0  0  0  0
   -3.4420   -2.2060    3.9020 N   0  0  0  0  0  0  0  0  0  0  0  0
   -2.3890   -1.4500    3.1480 N   0  0  0  0  0  0  0  0  0  0  0  0
   -3.3680   -3.1310    4.2290 H   0  0  0  0  0  0  0  0  0  0  0  0
    2.6060   -2.5570   -2.8390 C   0  0  0  0  0  0  0  0  0  0  0  0
    3.6120   -2.7750   -1.7480 C   0  0  0  0  0  3  0  0  0  0  0  0
    3.3970   -2.1620   -0.3960 C   0  0  0  0  0  3  0  0  0  0  0  0
    2.1760   -1.3310   -0.1350 C   0  0  0  0  0  3  0  0  0  0  0  0
    1.1690   -1.1140   -1.2260 C   0  0  0  0  0  0  0  0  0  0  0  0
    1.3850   -1.7270   -2.5780 C   0  0  0  0  0  3  0  0  0  0  0  0
    4.1740   -3.1080   -4.8370 C   0  0  0  0  0  0  0  0  0  0  0  0
    5.3110   -2.4320   -4.1300 O   0  0  0  0  0  0  0  0  0  0  0  0
    2.8210   -3.1710   -4.1910 N   0  0  0  0  0  0  0  0  0  0  0  0
    2.0750   -3.6140   -4.6550 H   0  0  0  0  0  0  0  0  0  0  0  0
    5.7520   -4.2070   -6.5830 C   0  0  0  0  0  1  0  0  0  0  0  0
    4.3890   -3.7210   -6.1890 C   0  0  0  0  0  2  0  0  0  0  0  0
  1  2  2  0  0  0  0
  2  3  1  0  0  0  0
  3 11  1  1  0  0  0
  4  5  1  0  0  0  0
  4  3  1  0  0  0  0
  6  5  2  0  0  0  0
  7  6  1  0  0  0  0
  8  7  2  0  0  0  0
  8  9  1  0  0  0  0
  9  4  2  0  0  0  0
 10  9  1  0  0  0  0
 10  1  1  0  0  0  0
 11 12  1  0  0  0  0
 11 13  1  0  0  0  0
 13 17  2  0  0  0  0
 13 14  1  0  0  0  0
 14 15  2  0  0  0  0
 16 15  1  0  0  0  0
 16 18  1  0  0  0  0
 17 16  1  0  0  0  0
 19 24  2  0  0  0  0
 19 20  1  0  0  0  0
 20 21  2  0  0  0  0
 21 22  1  0  0  0  0
 23  1  1  0  0  0  0
 23 22  2  0  0  0  0
 24 23  1  0  0  0  0
 25 27  1  0  0  0  0
 25 26  2  0  0  0  0
 27 19  1  0  0  0  0
 28 27  1  0  0  0  0
 29 30  1  0  0  0  0
 30 25  1  0  0  0  0
M  END
>  <MODEL>
       3

>  <REMARK>
  Name = 
  4 active torsions:
  status: ('A' for Active; 'I' for Inactive)
    1  A    between atoms: C_1  and  C_15
    2  A    between atoms: C_3  and  N_23
    3  A    between atoms: C_11  and  N_19
    4  A    between atoms: C_17  and  C_22
                            x       y       z     vdW  Elec       q    Type
                         _______ _______ _______ _____ _____    ______ ____

>  <TORSDO>
F 4

$$$$
=
 OpenBabel03122313433D

 30 33  0  0  1  0  0  0  0  0999 V2000
    0.7900   -0.9290   -1.8630 C   0  0  0  0  0  0  0  0  0  0  0  0
    0.9690   -1.5580   -3.2130 N   0  0  0  0  0  0  0  0  0  0  0  0
    2.1920   -2.3780   -3.5020 C   0  0  1  0  0  3  0  0  0  0  0  0
    3.2350   -2.5690   -2.4410 C   0  0  0  0  0  0  0  0  0  0  0  0
    4.4570   -3.3890   -2.7300 C   0  0  0  0  0  3  0  0  0  0  0  0
    5.5010   -3.5800   -1.6690 C   0  0  0  0  0  3  0  0  0  0  0  0
    5.3220   -2.9510   -0.3200 C   0  0  0  0  0  3  0  0  0  0  0  0
    4.0990   -2.1310   -0.0300 C   0  0  0  0  0  3  0  0  0  0  0  0
    3.0560   -1.9400   -1.0910 C   0  0  0  0  0  0  0  0  0  0  0  0
    1.8340   -1.1200   -0.8020 N   0  0  0  0  0  2  0  0  0  0  0  0
    2.3710   -3.0070   -4.8520 N   0  0  0  0  0  0  0  0  0  0  0  0
    1.6720   -3.5970   -5.2160 H   0  0  0  0  0  0  0  0  0  0  0  0
    3.6140   -2.7380   -5.6460 C   0  0  0  0  0  0  0  0  0  0  0  0
    4.1770   -1.3860   -5.9710 C   0  0  0  0  0  3  0  0  0  0  0  0
    5.4240   -1.5850   -6.7810 C   0  0  0  0  0  3  0  0  0  0  0  0
    5.6320   -3.0600   -6.9550 N   0  0  0  0  0  0  0  0  0  0  0  0
    4.5140   -3.7730   -6.2540 N   0  0  0  0  0  0  0  0  0  0  0  0
    6.3730   -3.4860   -7.4440 H   0  0  0  0  0  0  0  0  0  0  0  0
   -2.0790    0.9500    0.1340 C   0  0  0  0  0  0  0  0  0  0  0  0
   -2.8770    1.5300   -0.9960 C   0  0  0  0  0  3  0  0  0  0  0  0
   -2.4530    1.2910   -2.4140 C   0  0  0  0  0  3  0  0  0  0  0  0
   -1.2300    0.4710   -2.7030 C   0  0  0  0  0  3  0  0  0  0  0  0
   -0.4320   -0.1090   -1.5740 C   0  0  0  0  0  0  0  0  0  0  0  0
   -0.8560    0.1300   -0.1550 C   0  0  0  0  0  3  0  0  0  0  0  0
   -3.6400    0.4070    2.1380 C   0  0  0  0  0  0  0  0  0  0  0  0
   -4.3540   -0.6160    1.3040 O   0  0  0  0  0  0  0  0  0  0  0  0
   -2.5030    1.1900    1.5530 N   0  0  0  0  0  0  0  0  0  0  0  0
   -2.0340    1.8610    2.1000 H   0  0  0  0  0  0  0  0  0  0  0  0
   -4.7560    1.9250    3.9270 C   0  0  0  0  0  1  0  0  0  0  0  0
   -4.0640    0.6460    3.5570 C   0  0  0  0  0  2  0  0  0  0  0  0
  1 23  1  0  0  0  0
  1 10  1  0  0  0  0
  2  1  2  0  0  0  0
  3 11  1  1  0  0  0
  3  2  1  0  0  0  0
  3  4  1  0  0  0  0
  4  9  1  0  0  0  0
  5  4  2  0  0  0  0
  5  6  1  0  0  0  0
  6  7  2  0  0  0  0
  7  8  1  0  0  0  0
  9 10  1  0  0  0  0
  9  8  2  0  0  0  0
 12 11  1  0  0  0  0
 13 11  1  0  0  0  0
 14 13  1  0  0  0  0
 15 14  2  0  0  0  0
 16 15  1  0  0  0  0
 16 17  1  0  0  0  0
 17 13  2  0  0  0  0
 18 16  1  0  0  0  0
 19 27  1  0  0  0  0
 20 19  2  0  0  0  0
 21 20  1  0  0  0  0
 22 21  2  0  0  0  0
 22 23  1  0  0  0  0
 23 24  2  0  0  0  0
 24 19  1  0  0  0  0
 25 30  1  0  0  0  0
 26 25  2  0  0  0  0
 27 28  1  0  0  0  0
 27 25  1  0  0  0  0
 30 29  1  0  0  0  0
M  END
>  <MODEL>
       4

>  <REMARK>
  Name = 
  4 active torsions:
  status: ('A' for Active; 'I' for Inactive)
    1  A    between atoms: C_1  and  C_15
    2  A    between atoms: C_3  and  N_23
    3  A    between atoms: C_11  and  N_19
    4  A    between atoms: C_17  and  C_22
                            x       y       z     vdW  Elec       q    Type
                         _______ _______ _______ _____ _____    ______ ____

>  <TORSDO>
F 4

$$$$
=
 OpenBabel03122313433D

 28 29  0  0  1  0  0  0  0  0999 V2000
    4.1880   -3.4240   -4.8460 C   0  0  1  0  0  3  0  0  0  0  0  0
    3.5070   -4.3920   -5.7670 O   0  0  0  0  0  1  0  0  0  0  0  0
    3.4190   -2.7840   -3.7280 C   0  0  0  0  0  0  0  0  0  0  0  0
    3.9020   -2.9140   -2.3140 C   0  0  0  0  0  3  0  0  0  0  0  0
    3.1330   -2.2740   -1.1970 C   0  0  0  0  0  3  0  0  0  0  0  0
    1.8800   -1.5040   -1.4940 C   0  0  0  0  0  0  0  0  0  0  0  0
    1.3970   -1.3740   -2.9080 C   0  0  0  0  0  3  0  0  0  0  0  0
    2.1660   -2.0140   -4.0250 C   0  0  0  0  0  3  0  0  0  0  0  0
    1.1110   -0.8640   -0.3760 O   0  0  0  0  0  0  0  0  0  0  0  0
   -0.3800   -1.0140   -0.3100 C   0  0  0  0  0  2  0  0  0  0  0  0
   -1.2670    0.1210   -0.7270 C   0  0  0  0  0  0  0  0  0  0  0  0
   -1.9140    0.9890    0.3130 C   0  0  0  0  0  3  0  0  0  0  0  0
   -2.8010    2.1240   -0.1040 C   0  0  0  0  0  3  0  0  0  0  0  0
   -3.0420    2.3920   -1.5600 C   0  0  0  0  0  3  0  0  0  0  0  0
   -2.3960    1.5250   -2.6000 C   0  0  0  0  0  3  0  0  0  0  0  0
   -1.5080    0.3890   -2.1830 C   0  0  0  0  0  3  0  0  0  0  0  0
    5.6390   -3.0960   -5.0420 C   0  0  2  0  0  3  0  0  0  0  0  0
    6.6890   -4.1160   -4.7150 C   0  0  0  0  0  2  0  0  0  0  0  0
    6.3010   -6.3420   -5.9980 C   0  0  0  0  0  1  0  0  0  0  0  0
    7.1200   -5.1090   -5.7540 N   0  0  0  0  0  0  0  0  0  0  0  0
    8.3690   -4.8680   -6.5480 C   0  0  0  0  0  1  0  0  0  0  0  0
    6.0390   -1.7490   -5.5640 C   0  0  0  0  0  2  0  0  0  0  0  0
    6.2260   -1.5410   -7.0380 S   0  0  0  0  0  0  0  0  0  0  0  0
    6.1200   -0.1630   -7.6210 C   0  0  0  0  0  2  0  0  0  0  0  0
    7.1270    0.3050   -8.6300 C   0  0  0  0  0  2  0  0  0  0  0  0
    7.9460    1.5310   -8.3580 N   0  0  0  0  0  0  0  0  0  0  0  0
    7.8190    2.0470   -7.4870 H   0  0  0  0  0  0  0  0  0  0  0  0
    8.6310    1.8490   -9.0430 H   0  0  0  0  0  0  0  0  0  0  0  0
  1  2  1  1  0  0  0
  1  3  1  0  0  0  0
  3  4  1  0  0  0  0
  4  5  2  0  0  0  0
  6  5  1  0  0  0  0
  6  9  1  0  0  0  0
  7  6  2  0  0  0  0
  8  3  2  0  0  0  0
  8  7  1  0  0  0  0
  9 10  1  0  0  0  0
 11 10  1  0  0  0  0
 11 12  1  0  0  0  0
 13 12  2  0  0  0  0
 14 13  1  0  0  0  0
 15 16  1  0  0  0  0
 15 14  2  0  0  0  0
 16 11  2  0  0  0  0
 17 22  1  1  0  0  0
 17  1  1  0  0  0  0
 17 18  1  0  0  0  0
 19 20  1  0  0  0  0
 20 18  1  0  0  0  0
 21 20  1  0  0  0  0
 23 22  1  0  0  0  0
 24 23  1  0  0  0  0
 25 26  1  0  0  0  0
 25 24  1  0  0  0  0
 26 27  1  0  0  0  0
 28 26  1  0  0  0  0
M  END
>  <MODEL>
       2

>  <REMARK>
  Name = 
  12 active torsions:
  status: ('A' for Active; 'I' for Inactive)
    1  A    between atoms: C_1  and  C_3
    2  A    between atoms: C_1  and  C_17
    3  A    between atoms: C_6  and  O_9
    4  A    between atoms: O_9  and  C_10
    5  A    between atoms: C_10  and  C_11
    6  A    between atoms: C_17  and  C_18
    7  A    between atoms: C_17  and  C_22
    8  A    between atoms: C_18  and  N_20
    9  A    between atoms: C_22  and  S_23
   10  A    between atoms: S_23  and  C_24
   11  A    between atoms: C_24  and  C_25
   12  A    between atoms: C_25  and  N_26
                            x       y       z     vdW  Elec       q    Type
                         _______ _______ _______ _____ _____    ______ ____

>  <TORSDO>
F 12

$$$$
=
 OpenBabel03122313433D

 28 29  0  0  1  0  0  0  0  0999 V2000
    3.7650   -2.9870   -4.9160 C   0  0  2  0  0  3  0  0  0  0  0  0
    3.2710   -4.2250   -5.6040 O   0  0  0  0  0  1  0  0  0  0  0  0
    2.9960   -2.4120   -3.7640 C   0  0  0  0  0  0  0  0  0  0  0  0
    1.8480   -1.4800   -4.0180 C   0  0  0  0  0  3  0  0  0  0  0  0
    1.0790   -0.9050   -2.8650 C   0  0  0  0  0  3  0  0  0  0  0  0
    1.4580   -1.2620   -1.4580 C   0  0  0  0  0  0  0  0  0  0  0  0
    2.6060   -2.1940   -1.2040 C   0  0  0  0  0  3  0  0  0  0  0  0
    3.3750   -2.7690   -2.3570 C   0  0  0  0  0  3  0  0  0  0  0  0
    0.6900   -0.6870   -0.3060 O   0  0  0  0  0  0  0  0  0  0  0  0
   -0.8090   -0.7430   -0.3020 C   0  0  0  0  0  2  0  0  0  0  0  0
   -1.6060    0.4620   -0.7060 C   0  0  0  0  0  0  0  0  0  0  0  0
   -2.1660    1.3770    0.3420 C   0  0  0  0  0  3  0  0  0  0  0  0
   -2.9620    2.5820   -0.0620 C   0  0  0  0  0  3  0  0  0  0  0  0
   -3.1990    2.8720   -1.5140 C   0  0  0  0  0  3  0  0  0  0  0  0
   -2.6390    1.9560   -2.5630 C   0  0  0  0  0  3  0  0  0  0  0  0
   -1.8430    0.7510   -2.1580 C   0  0  0  0  0  3  0  0  0  0  0  0
    5.0270   -2.3240   -5.3810 C   0  0  1  0  0  3  0  0  0  0  0  0
    4.9800   -1.3100   -6.4850 C   0  0  0  0  0  2  0  0  0  0  0  0
    6.8540    0.1800   -7.4940 C   0  0  0  0  0  1  0  0  0  0  0  0
    6.1550   -1.1440   -7.4020 N   0  0  0  0  0  0  0  0  0  0  0  0
    6.6300   -2.3010   -8.2290 C   0  0  0  0  0  1  0  0  0  0  0  0
    6.3380   -2.6750   -4.7410 C   0  0  0  0  0  2  0  0  0  0  0  0
    6.7310   -4.1140   -4.5770 S   0  0  0  0  0  0  0  0  0  0  0  0
    7.4570   -4.8240   -5.6800 C   0  0  0  0  0  2  0  0  0  0  0  0
    6.8860   -6.0810   -6.2670 C   0  0  0  0  0  2  0  0  0  0  0  0
    5.4040   -6.3060   -6.2580 N   0  0  0  0  0  0  0  0  0  0  0  0
    4.7830   -5.6050   -5.8540 H   0  0  0  0  0  0  0  0  0  0  0  0
    5.0150   -7.1610   -6.6570 H   0  0  0  0  0  0  0  0  0  0  0  0
  1  2  1  6  0  0  0
  1  3  1  0  0  0  0
  3  8  1  0  0  0  0
  4  3  2  0  0  0  0
  4  5  1  0  0  0  0
  5  6  2  0  0  0  0
  6  7  1  0  0  0  0
  6  9  1  0  0  0  0
  8  7  2  0  0  0  0
  9 10  1  0  0  0  0
 11 10  1  0  0  0  0
 11 12  1  0  0  0  0
 13 12  2  0  0  0  0
 14 13  1  0  0  0  0
 15 16  1  0  0  0  0
 15 14  2  0  0  0  0
 16 11  2  0  0  0  0
 17 18  1  1  0  0  0
 17  1  1  0  0  0  0
 17 22  1  0  0  0  0
 19 20  1  0  0  0  0
 20 18  1  0  0  0  0
 21 20  1  0  0  0  0
 22 23  1  0  0  0  0
 24 23  1  0  0  0  0
 25 26  1  0  0  0  0
 25 24  1  0  0  0  0
 26 27  1  0  0  0  0
 28 26  1  0  0  0  0
M  END
>  <MODEL>
       3

>  <REMARK>
  Name = 
  12 active torsions:
  status: ('A' for Active; 'I' for Inactive)
    1  A    between atoms: C_1  and  C_3
    2  A    between atoms: C_1  and  C_17
    3  A    between atoms: C_6  and  O_9
    4  A    between atoms: O_9  and  C_10
    5  A    between atoms: C_10  and  C_11
    6  A    between atoms: C_17  and  C_18
    7  A    between atoms: C_17  and  C_22
    8  A    between atoms: C_18  and  N_20
    9  A    between atoms: C_22  and  S_23
   10  A    between atoms: S_23  and  C_24
   11  A    between atoms: C_24  and  C_25
   12  A    between atoms: C_25  and  N_26
                            x       y       z     vdW  Elec       q    Type
                         _______ _______ _______ _____ _____    ______ ____

>  <TORSDO>
F 12

$$$$
=
 OpenBabel03122313433D

 28 29  0  0  1  0  0  0  0  0999 V2000
    3.9140   -3.0850   -4.9130 C   0  0  1  0  0  3  0  0  0  0  0  0
    3.4260   -4.3000   -5.6450 O   0  0  0  0  0  1  0  0  0  0  0  0
    3.1550   -2.5700   -3.7260 C   0  0  0  0  0  0  0  0  0  0  0  0
    3.6280   -2.8870   -2.3380 C   0  0  0  0  0  3  0  0  0  0  0  0
    2.8690   -2.3720   -1.1510 C   0  0  0  0  0  3  0  0  0  0  0  0
    1.6380   -1.5400   -1.3520 C   0  0  0  0  0  0  0  0  0  0  0  0
    1.1650   -1.2220   -2.7400 C   0  0  0  0  0  3  0  0  0  0  0  0
    1.9240   -1.7380   -3.9260 C   0  0  0  0  0  3  0  0  0  0  0  0
    0.8790   -1.0240   -0.1650 O   0  0  0  0  0  0  0  0  0  0  0  0
   -0.5000   -0.4620   -0.3430 C   0  0  0  0  0  2  0  0  0  0  0  0
   -1.3950   -0.2800    0.8470 C   0  0  0  0  0  0  0  0  0  0  0  0
   -2.3480    0.8780    0.8990 C   0  0  0  0  0  3  0  0  0  0  0  0
   -3.2430    1.0590    2.0890 C   0  0  0  0  0  3  0  0  0  0  0  0
   -3.1870    0.0820    3.2260 C   0  0  0  0  0  3  0  0  0  0  0  0
   -2.2350   -1.0760    3.1730 C   0  0  0  0  0  3  0  0  0  0  0  0
   -1.3390   -1.2570    1.9840 C   0  0  0  0  0  3  0  0  0  0  0  0
    5.1610   -2.3860   -5.3670 C   0  0  1  0  0  3  0  0  0  0  0  0
    5.0730   -1.2700   -6.3660 C   0  0  0  0  0  2  0  0  0  0  0  0
    6.8310    0.2600   -7.5140 C   0  0  0  0  0  1  0  0  0  0  0  0
    6.1680   -1.0780   -7.3730 N   0  0  0  0  0  0  0  0  0  0  0  0
    6.6000   -2.2240   -8.2390 C   0  0  0  0  0  1  0  0  0  0  0  0
    6.4950   -2.8020   -4.8220 C   0  0  0  0  0  2  0  0  0  0  0  0
    6.8300   -4.2580   -4.6890 S   0  0  0  0  0  0  0  0  0  0  0  0
    7.5280   -4.9720   -5.8090 C   0  0  0  0  0  2  0  0  0  0  0  0
    6.7340   -5.7790   -6.7930 C   0  0  0  0  0  2  0  0  0  0  0  0
    5.5090   -6.5180   -6.3430 N   0  0  0  0  0  0  0  0  0  0  0  0
    5.2160   -6.4710   -5.3670 H   0  0  0  0  0  0  0  0  0  0  0  0
    4.9700   -7.0670   -7.0120 H   0  0  0  0  0  0  0  0  0  0  0  0
  1  2  1  1  0  0  0
  1  3  1  0  0  0  0
  3  4  1  0  0  0  0
  4  5  2  0  0  0  0
  6  5  1  0  0  0  0
  6  9  1  0  0  0  0
  7  6  2  0  0  0  0
  8  3  2  0  0  0  0
  8  7  1  0  0  0  0
 10  9  1  0  0  0  0
 10 11  1  0  0  0  0
 11 12  2  0  0  0  0
 11 16  1  0  0  0  0
 12 13  1  0  0  0  0
 13 14  2  0  0  0  0
 15 14  1  0  0  0  0
 16 15  2  0  0  0  0
 17 18  1  1  0  0  0
 17  1  1  0  0  0  0
 17 22  1  0  0  0  0
 19 20  1  0  0  0  0
 20 18  1  0  0  0  0
 21 20  1  0  0  0  0
 22 23  1  0  0  0  0
 24 23  1  0  0  0  0
 25 26  1  0  0  0  0
 25 24  1  0  0  0  0
 26 27  1  0  0  0  0
 28 26  1  0  0  0  0
M  END
>  <MODEL>
       4

>  <REMARK>
  Name = 
  12 active torsions:
  status: ('A' for Active; 'I' for Inactive)
    1  A    between atoms: C_1  and  C_3
    2  A    between atoms: C_1  and  C_17
    3  A    between atoms: C_6  and  O_9
    4  A    between atoms: O_9  and  C_10
    5  A    between atoms: C_10  and  C_11
    6  A    between atoms: C_17  and  C_18
    7  A    between atoms: C_17  and  C_22
    8  A    between atoms: C_18  and  N_20
    9  A    between atoms: C_22  and  S_23
   10  A    between atoms: S_23  and  C_24
   11  A    between atoms: C_24  and  C_25
   12  A    between atoms: C_25  and  N_26
                            x       y       z     vdW  Elec       q    Type
                         _______ _______ _______ _____ _____    ______ ____

>  <TORSDO>
F 12

$$$$
=
 OpenBabel03122313433D

 22 22  0  0  0  0  0  0  0  0999 V2000
    4.1490   -3.4560   -5.1280 C   0  0  0  0  0  0  0  0  0  0  0  0
    4.3180   -3.4950   -3.6380 C   0  0  0  0  0  3  0  0  0  0  0  0
    3.3240   -2.8060   -2.7510 C   0  0  0  0  0  3  0  0  0  0  0  0
    2.1590   -2.0770   -3.3540 C   0  0  0  0  0  0  0  0  0  0  0  0
    1.9900   -2.0380   -4.8440 C   0  0  0  0  0  3  0  0  0  0  0  0
    2.9840   -2.7280   -5.7310 C   0  0  0  0  0  3  0  0  0  0  0  0
    6.3220   -3.3880   -6.5480 N   0  0  0  0  0  0  0  0  0  0  0  0
    5.1430   -4.1450   -6.0140 C   0  0  0  0  0  0  0  0  0  0  0  0
    4.9580   -5.5910   -6.3660 O   0  0  0  0  0  0  0  0  0  0  0  0
    7.3170   -4.0770   -7.4350 C   0  0  0  0  0  2  0  0  0  0  0  0
    8.3700   -5.9750   -6.0080 C   0  0  0  0  0  1  0  0  0  0  0  0
    8.5250   -4.7350   -6.8370 C   0  0  0  0  0  2  0  0  0  0  0  0
    6.5070   -1.9410   -6.1960 C   0  0  0  0  0  2  0  0  0  0  0  0
    5.8380   -0.8780   -7.0160 C   0  0  0  0  0  2  0  0  0  0  0  0
    6.3890   -0.5110   -8.3620 C   0  0  0  0  0  1  0  0  0  0  0  0
    1.1650   -1.3880   -2.4680 N   0  0  0  0  0  0  0  0  0  0  0  0
    1.1130   -1.7130   -1.0040 C   0  0  0  0  0  2  0  0  0  0  0  0
    1.7760   -0.8050   -0.0110 C   0  0  0  0  0  2  0  0  0  0  0  0
    2.9350    0.0480   -0.4310 Cl  0  0  0  0  0  0  0  0  0  0  0  0
    0.2220   -0.3740   -3.0450 C   0  0  0  0  0  3  0  0  0  0  0  0
   -1.0340   -0.0140   -2.3080 C   0  0  0  0  0  3  0  0  0  0  0  0
   -1.9410    1.0520   -2.8480 Cl  0  0  0  0  0  0  0  0  0  0  0  0
  1  2  1  0  0  0  0
  2  3  2  0  0  0  0
  4  3  1  0  0  0  0
  4 16  1  0  0  0  0
  5  4  2  0  0  0  0
  6  1  2  0  0  0  0
  6  5  1  0  0  0  0
  7 13  1  0  0  0  0
  7  8  1  0  0  0  0
  8  1  1  0  0  0  0
  9  8  2  0  0  0  0
 10 12  1  0  0  0  0
 10  7  1  0  0  0  0
 12 11  1  0  0  0  0
 14 13  1  0  0  0  0
 15 14  1  0  0  0  0
 16 17  1  0  0  0  0
 17 18  1  0  0  0  0
 19 18  1  0  0  0  0
 20 16  1  0  0  0  0
 20 21  2  0  0  0  0
 22 21  1  0  0  0  0
M  END
>  <MODEL>
       2

>  <REMARK>
  Name = 
  10 active torsions:
  status: ('A' for Active; 'I' for Inactive)
    1  A    between atoms: C_1  and  C_8
    2  A    between atoms: C_4  and  N_16
    3  A    between atoms: N_7  and  C_10
    4  A    between atoms: N_7  and  C_13
    5  A    between atoms: C_10  and  C_12
    6  A    between atoms: C_13  and  C_14
    7  A    between atoms: N_16  and  C_17
    8  A    between atoms: N_16  and  C_20
    9  A    between atoms: C_17  and  C_18
   10  A    between atoms: C_20  and  C_21
                            x       y       z     vdW  Elec       q    Type
                         _______ _______ _______ _____ _____    ______ ____

>  <TORSDO>
F 10

$$$$
=
 OpenBabel03122313433D

 22 22  0  0  0  0  0  0  0  0999 V2000
    4.2620   -3.6330   -5.1410 C   0  0  0  0  0  0  0  0  0  0  0  0
    4.5150   -3.5910   -3.6630 C   0  0  0  0  0  3  0  0  0  0  0  0
    3.5490   -2.8870   -2.7570 C   0  0  0  0  0  3  0  0  0  0  0  0
    2.3300   -2.2250   -3.3290 C   0  0  0  0  0  0  0  0  0  0  0  0
    2.0780   -2.2670   -4.8060 C   0  0  0  0  0  3  0  0  0  0  0  0
    3.0440   -2.9710   -5.7130 C   0  0  0  0  0  3  0  0  0  0  0  0
    6.3880   -3.5880   -6.6340 N   0  0  0  0  0  0  0  0  0  0  0  0
    5.2280   -4.3370   -6.0470 C   0  0  0  0  0  0  0  0  0  0  0  0
    5.0350   -5.7900   -6.3650 O   0  0  0  0  0  0  0  0  0  0  0  0
    7.3540   -4.2920   -7.5400 C   0  0  0  0  0  2  0  0  0  0  0  0
    8.5230   -6.0020   -5.9710 C   0  0  0  0  0  1  0  0  0  0  0  0
    8.6080   -4.8930   -6.9780 C   0  0  0  0  0  2  0  0  0  0  0  0
    6.5810   -2.1350   -6.3150 C   0  0  0  0  0  2  0  0  0  0  0  0
    6.0470   -1.0860   -7.2440 C   0  0  0  0  0  2  0  0  0  0  0  0
    6.8090    0.1890   -7.4550 C   0  0  0  0  0  1  0  0  0  0  0  0
    1.3640   -1.5210   -2.4220 N   0  0  0  0  0  0  0  0  0  0  0  0
    0.4310   -0.4870   -2.9790 C   0  0  0  0  0  3  0  0  0  0  0  0
   -0.8680   -0.1990   -2.2870 C   0  0  0  0  0  3  0  0  0  0  0  0
   -1.7800    0.8690   -2.8170 Cl  0  0  0  0  0  0  0  0  0  0  0  0
    1.3310   -1.8510   -0.9600 C   0  0  0  0  0  2  0  0  0  0  0  0
    2.0070   -0.9480    0.0290 C   0  0  0  0  0  2  0  0  0  0  0  0
    3.0040    0.0690   -0.4450 Cl  0  0  0  0  0  0  0  0  0  0  0  0
  1  2  1  0  0  0  0
  2  3  2  0  0  0  0
  4  3  1  0  0  0  0
  4 16  1  0  0  0  0
  5  4  2  0  0  0  0
  6  1  2  0  0  0  0
  6  5  1  0  0  0  0
  7 13  1  0  0  0  0
  7  8  1  0  0  0  0
  8  1  1  0  0  0  0
  9  8  2  0  0  0  0
 10 12  1  0  0  0  0
 10  7  1  0  0  0  0
 12 11  1  0  0  0  0
 14 13  1  0  0  0  0
 15 14  1  0  0  0  0
 16 20  1  0  0  0  0
 17 16  1  0  0  0  0
 17 18  2  0  0  0  0
 19 18  1  0  0  0  0
 20 21  1  0  0  0  0
 22 21  1  0  0  0  0
M  END
>  <MODEL>
       3

>  <REMARK>
  Name = 
  10 active torsions:
  status: ('A' for Active; 'I' for Inactive)
    1  A    between atoms: C_1  and  C_8
    2  A    between atoms: C_4  and  N_16
    3  A    between atoms: N_7  and  C_10
    4  A    between atoms: N_7  and  C_13
    5  A    between atoms: C_10  and  C_12
    6  A    between atoms: C_13  and  C_14
    7  A    between atoms: N_16  and  C_17
    8  A    between atoms: N_16  and  C_20
    9  A    between atoms: C_17  and  C_18
   10  A    between atoms: C_20  and  C_21
                            x       y       z     vdW  Elec       q    Type
                         _______ _______ _______ _____ _____    ______ ____

>  <TORSDO>
F 10

$$$$
=
 OpenBabel03122313433D

 22 22  0  0  0  0  0  0  0  0999 V2000
    2.2300   -2.0650   -1.4640 C   0  0  0  0  0  0  0  0  0  0  0  0
    0.9110   -2.7080   -1.7720 C   0  0  0  0  0  3  0  0  0  0  0  0
   -0.3600   -2.0930   -1.2640 C   0  0  0  0  0  3  0  0  0  0  0  0
   -0.3100   -0.8350   -0.4490 C   0  0  0  0  0  0  0  0  0  0  0  0
    1.0090   -0.1920   -0.1410 C   0  0  0  0  0  3  0  0  0  0  0  0
    2.2800   -0.8060   -0.6490 C   0  0  0  0  0  3  0  0  0  0  0  0
    3.6320   -3.0420   -3.4220 N   0  0  0  0  0  0  0  0  0  0  0  0
    3.5010   -2.6800   -1.9720 C   0  0  0  0  0  0  0  0  0  0  0  0
    4.6410   -2.9320   -1.0300 O   0  0  0  0  0  0  0  0  0  0  0  0
    4.9020   -3.6570   -3.9300 C   0  0  0  0  0  2  0  0  0  0  0  0
    6.0920   -1.9360   -5.4710 C   0  0  0  0  0  1  0  0  0  0  0  0
    6.0860   -2.7880   -4.2360 C   0  0  0  0  0  2  0  0  0  0  0  0
    2.4920   -2.7890   -4.3640 C   0  0  0  0  0  2  0  0  0  0  0  0
    2.3870   -1.4740   -5.0780 C   0  0  0  0  0  2  0  0  0  0  0  0
    1.3940   -0.4480   -4.6180 C   0  0  0  0  0  1  0  0  0  0  0  0
   -1.5810   -0.2200    0.0590 N   0  0  0  0  0  0  0  0  0  0  0  0
   -2.2670   -0.8000    1.2600 C   0  0  0  0  0  2  0  0  0  0  0  0
   -2.2760   -0.0450    2.5570 C   0  0  0  0  0  2  0  0  0  0  0  0
   -1.8630   -0.7290    3.8260 Cl  0  0  0  0  0  0  0  0  0  0  0  0
   -2.1660    0.9740   -0.6340 C   0  0  0  0  0  3  0  0  0  0  0  0
   -2.1030    1.0790   -2.1290 C   0  0  0  0  0  3  0  0  0  0  0  0
   -2.5500    2.3370   -2.8130 Cl  0  0  0  0  0  0  0  0  0  0  0  0
  1  6  1  0  0  0  0
  2  1  2  0  0  0  0
  2  3  1  0  0  0  0
  3  4  2  0  0  0  0
  4  5  1  0  0  0  0
  4 16  1  0  0  0  0
  6  5  2  0  0  0  0
  7  8  1  0  0  0  0
  8  1  1  0  0  0  0
  8  9  2  0  0  0  0
 10  7  1  0  0  0  0
 11 12  1  0  0  0  0
 12 10  1  0  0  0  0
 13  7  1  0  0  0  0
 14 15  1  0  0  0  0
 14 13  1  0  0  0  0
 16 17  1  0  0  0  0
 17 18  1  0  0  0  0
 18 19  1  0  0  0  0
 20 16  1  0  0  0  0
 21 20  2  0  0  0  0
 22 21  1  0  0  0  0
M  END
>  <MODEL>
       4

>  <REMARK>
  Name = 
  10 active torsions:
  status: ('A' for Active; 'I' for Inactive)
    1  A    between atoms: C_1  and  C_8
    2  A    between atoms: C_4  and  N_16
    3  A    between atoms: N_7  and  C_10
    4  A    between atoms: N_7  and  C_13
    5  A    between atoms: C_10  and  C_12
    6  A    between atoms: C_13  and  C_14
    7  A    between atoms: N_16  and  C_17
    8  A    between atoms: N_16  and  C_20
    9  A    between atoms: C_17  and  C_18
   10  A    between atoms: C_20  and  C_21
                            x       y       z     vdW  Elec       q    Type
                         _______ _______ _______ _____ _____    ______ ____

>  <TORSDO>
F 10

$$$$
=
 OpenBabel03122313433D

 32 35  0  0  1  0  0  0  0  0999 V2000
   -5.5670   -0.4930    3.7270 C   0  0  2  0  0  3  0  0  0  0  0  0
   -6.1770    0.7960    4.1900 C   0  0  0  0  0  3  0  0  0  0  0  0
   -5.4600    2.0920    3.9580 C   0  0  0  0  0  0  0  0  0  0  0  0
   -4.1310    2.0990    3.2610 N   0  0  0  0  0  0  0  0  0  0  0  0
   -3.5210    0.8100    2.7970 C   0  0  0  0  0  0  0  0  0  0  0  0
   -4.2380   -0.4860    3.0300 N   0  0  0  0  0  0  0  0  0  0  0  0
   -6.0700    3.3810    4.4210 N   0  0  0  0  0  0  0  0  0  0  0  0
   -5.7140    3.8370    5.2180 H   0  0  0  0  0  0  0  0  0  0  0  0
   -7.2250    3.9770    3.6710 C   0  0  0  0  0  0  0  0  0  0  0  0
   -7.5280    3.7770    2.2160 C   0  0  0  0  0  3  0  0  0  0  0  0
   -8.7690    4.5540    1.8900 C   0  0  0  0  0  0  0  0  0  0  0  0
   -9.4310    4.6360    0.5460 C   0  0  0  0  0  1  0  0  0  0  0  0
   -9.2330    5.2340    3.1440 N   0  0  0  0  0  0  0  0  0  0  0  0
   -8.2780    4.8780    4.2450 N   0  0  0  0  0  0  0  0  0  0  0  0
  -10.0240    5.8130    3.2290 H   0  0  0  0  0  0  0  0  0  0  0  0
   -8.4380   -5.6790    4.6580 C   0  0  0  0  0  1  0  0  0  0  0  0
   -7.7200   -4.3830    4.4250 N   0  0  0  0  0  0  0  0  0  0  0  0
   -8.1480   -3.4780    3.3070 C   0  0  0  0  0  3  0  0  0  0  0  0
   -7.4300   -2.1820    3.0750 C   0  0  0  0  0  3  0  0  0  0  0  0
   -6.2850   -1.7900    3.9590 N   0  0  0  0  0  0  0  0  0  0  0  0
   -5.8560   -2.6940    5.0770 C   0  0  0  0  0  3  0  0  0  0  0  0
   -6.5740   -3.9900    5.3100 C   0  0  0  0  0  3  0  0  0  0  0  0
   -2.1920    0.8180    2.1010 O   0  0  0  0  0  0  0  0  0  0  0  0
   -2.1310    0.8490    0.6020 C   0  0  0  0  0  0  0  0  0  0  0  0
   -1.3200   -0.1750   -0.1370 C   0  0  0  0  0  3  0  0  0  0  0  0
   -1.2590   -0.1440   -1.6350 C   0  0  0  0  0  3  0  0  0  0  0  0
   -2.0090    0.9100   -2.3950 C   0  0  0  0  0  3  0  0  0  0  0  0
   -2.8200    1.9330   -1.6560 C   0  0  0  0  0  0  0  0  0  0  0  0
   -2.8810    1.9030   -0.1570 C   0  0  0  0  0  3  0  0  0  0  0  0
   -3.5700    2.9880   -2.4150 N   0  0  0  0  0  0  0  0  0  0  0  0
   -3.0800    4.4050   -2.4120 O   0  0  0  0  0  0  0  0  0  0  0  0
   -4.8090    2.6240   -3.1780 O   0  0  0  0  0  0  0  0  0  0  0  0
  1 20  1  6  0  0  0
  1  2  1  0  0  0  0
  3  2  2  0  0  0  0
  3  7  1  0  0  0  0
  4  3  1  0  0  0  0
  5  6  2  0  0  0  0
  5  4  2  0  0  0  0
  6  1  1  0  0  0  0
  7  8  1  0  0  0  0
  9 14  2  0  0  0  0
  9  7  1  0  0  0  0
 10  9  1  0  0  0  0
 11 10  2  0  0  0  0
 11 13  1  0  0  0  0
 12 11  1  0  0  0  0
 13 15  1  0  0  0  0
 13 14  1  0  0  0  0
 17 16  1  0  0  0  0
 17 22  1  0  0  0  0
 18 17  1  0  0  0  0
 19 18  2  0  0  0  0
 19 20  1  0  0  0  0
 20 21  1  0  0  0  0
 21 22  2  0  0  0  0
 23  5  1  0  0  0  0
 24 23  1  0  0  0  0
 25 24  1  0  0  0  0
 26 25  2  0  0  0  0
 27 28  2  0  0  0  0
 27 26  1  0  0  0  0
 28 29  1  0  0  0  0
 29 24  2  0  0  0  0
 30 31  2  0  0  0  0
 30 28  1  0  0  0  0
 32 30  2  0  0  0  0
M  END
>  <MODEL>
       2

>  <REMARK>
  Name = 
  4 active torsions:
  status: ('A' for Active; 'I' for Inactive)
    1  A    between atoms: C_1  and  N_11
    2  A    between atoms: C_5  and  O_23
    3  A    between atoms: O_23  and  C_24
    4  A    between atoms: C_28  and  N_30
                            x       y       z     vdW  Elec       q    Type
                         _______ _______ _______ _____ _____    ______ ____

>  <TORSDO>
F 4

$$$$
=
 OpenBabel03122313433D

 32 35  0  0  1  0  0  0  0  0999 V2000
   -5.3750    1.2920    4.2000 C   0  0  2  0  0  3  0  0  0  0  0  0
   -5.6210   -0.1420    4.5630 C   0  0  0  0  0  3  0  0  0  0  0  0
   -4.6440   -1.2000    4.1430 C   0  0  0  0  0  0  0  0  0  0  0  0
   -3.4210   -0.8240    3.3610 N   0  0  0  0  0  0  0  0  0  0  0  0
   -3.1750    0.6110    2.9980 C   0  0  0  0  0  0  0  0  0  0  0  0
   -4.1520    1.6690    3.4180 N   0  0  0  0  0  0  0  0  0  0  0  0
   -4.8910   -2.6350    4.5050 N   0  0  0  0  0  0  0  0  0  0  0  0
   -4.1340   -3.2600    4.5820 H   0  0  0  0  0  0  0  0  0  0  0  0
   -6.2900   -3.1160    4.7520 C   0  0  0  0  0  0  0  0  0  0  0  0
   -6.9190   -3.3470    6.0930 C   0  0  0  0  0  3  0  0  0  0  0  0
   -8.3230   -3.8250    5.8700 C   0  0  0  0  0  0  0  0  0  0  0  0
   -9.3150   -4.1770    6.9390 C   0  0  0  0  0  1  0  0  0  0  0  0
   -8.5620   -3.8900    4.3910 N   0  0  0  0  0  0  0  0  0  0  0  0
   -7.3050   -3.4520    3.6990 N   0  0  0  0  0  0  0  0  0  0  0  0
   -9.3960   -4.1710    3.9510 H   0  0  0  0  0  0  0  0  0  0  0  0
   -9.2830    5.5240    5.8790 C   0  0  0  0  0  1  0  0  0  0  0  0
   -8.3060    4.4660    5.4590 N   0  0  0  0  0  0  0  0  0  0  0  0
   -8.0230    3.3050    6.3650 C   0  0  0  0  0  3  0  0  0  0  0  0
   -7.0460    2.2470    5.9450 C   0  0  0  0  0  3  0  0  0  0  0  0
   -6.3520    2.3500    4.6200 N   0  0  0  0  0  0  0  0  0  0  0  0
   -6.6350    3.5120    3.7140 C   0  0  0  0  0  3  0  0  0  0  0  0
   -7.6120    4.5700    4.1330 C   0  0  0  0  0  3  0  0  0  0  0  0
   -1.9510    0.9880    2.2160 O   0  0  0  0  0  0  0  0  0  0  0  0
   -1.9730    0.9320    0.7180 C   0  0  0  0  0  0  0  0  0  0  0  0
   -1.2260   -0.1500   -0.0040 C   0  0  0  0  0  3  0  0  0  0  0  0
   -1.2470   -0.2050   -1.5030 C   0  0  0  0  0  3  0  0  0  0  0  0
   -2.0160    0.8220   -2.2800 C   0  0  0  0  0  3  0  0  0  0  0  0
   -2.7640    1.9040   -1.5580 C   0  0  0  0  0  0  0  0  0  0  0  0
   -2.7420    1.9590   -0.0600 C   0  0  0  0  0  3  0  0  0  0  0  0
   -3.5330    2.9310   -2.3360 N   0  0  0  0  0  0  0  0  0  0  0  0
   -4.7130    2.5170   -3.1630 O   0  0  0  0  0  0  0  0  0  0  0  0
   -3.1210    4.3730   -2.2860 O   0  0  0  0  0  0  0  0  0  0  0  0
  1  2  1  1  0  0  0
  1 20  1  0  0  0  0
  3  7  1  0  0  0  0
  3  2  2  0  0  0  0
  4  3  1  0  0  0  0
  5  4  2  0  0  0  0
  5  6  2  0  0  0  0
  6  1  1  0  0  0  0
  7  8  1  0  0  0  0
  7  9  1  0  0  0  0
  9 10  1  0  0  0  0
 11 10  2  0  0  0  0
 11 12  1  0  0  0  0
 13 11  1  0  0  0  0
 14 13  1  0  0  0  0
 14  9  2  0  0  0  0
 15 13  1  0  0  0  0
 17 16  1  0  0  0  0
 17 18  1  0  0  0  0
 19 18  2  0  0  0  0
 20 19  1  0  0  0  0
 21 22  2  0  0  0  0
 21 20  1  0  0  0  0
 22 17  1  0  0  0  0
 23  5  1  0  0  0  0
 24 23  1  0  0  0  0
 25 24  1  0  0  0  0
 26 25  2  0  0  0  0
 27 28  2  0  0  0  0
 27 26  1  0  0  0  0
 28 29  1  0  0  0  0
 29 24  2  0  0  0  0
 30 32  2  0  0  0  0
 30 28  1  0  0  0  0
 31 30  2  0  0  0  0
M  END
>  <MODEL>
       3

>  <REMARK>
  Name = 
  4 active torsions:
  status: ('A' for Active; 'I' for Inactive)
    1  A    between atoms: C_1  and  N_11
    2  A    between atoms: C_5  and  O_23
    3  A    between atoms: O_23  and  C_24
    4  A    between atoms: C_28  and  N_30
                            x       y       z     vdW  Elec       q    Type
                         _______ _______ _______ _____ _____    ______ ____

>  <TORSDO>
F 4

$$$$
=
 OpenBabel03122313433D

 32 35  0  0  1  0  0  0  0  0999 V2000
   -7.7310   -1.6050    3.0980 C   0  0  0  0  0  0  0  0  0  0  0  0
   -7.4840   -2.7940    3.9780 C   0  0  0  0  0  3  0  0  0  0  0  0
   -6.1820   -2.9290    4.7100 C   0  0  1  0  0  3  0  0  0  0  0  0
   -5.1260   -1.8730    4.5630 N   0  0  0  0  0  0  0  0  0  0  0  0
   -5.3730   -0.6840    3.6830 C   0  0  0  0  0  0  0  0  0  0  0  0
   -6.6750   -0.5490    2.9510 N   0  0  0  0  0  0  0  0  0  0  0  0
   -5.9350   -4.1180    5.5900 N   0  0  0  0  0  0  0  0  0  0  0  0
   -6.1390   -4.0690    6.5520 H   0  0  0  0  0  0  0  0  0  0  0  0
   -5.3780   -5.3820    5.0040 C   0  0  0  0  0  0  0  0  0  0  0  0
   -3.9300   -5.7710    4.9620 C   0  0  0  0  0  3  0  0  0  0  0  0
   -3.8290   -7.1080    4.2900 C   0  0  0  0  0  0  0  0  0  0  0  0
   -2.5640   -7.8730    4.0350 C   0  0  0  0  0  1  0  0  0  0  0  0
   -5.2150   -7.5450    3.9160 N   0  0  0  0  0  0  0  0  0  0  0  0
   -6.1720   -6.4780    4.3570 N   0  0  0  0  0  0  0  0  0  0  0  0
   -5.4530   -8.3840    3.4610 H   0  0  0  0  0  0  0  0  0  0  0  0
  -12.9400   -1.0680    0.1700 C   0  0  0  0  0  1  0  0  0  0  0  0
  -11.6370   -1.2020    0.9020 N   0  0  0  0  0  0  0  0  0  0  0  0
  -10.4340   -0.4350    0.4390 C   0  0  0  0  0  3  0  0  0  0  0  0
   -9.1320   -0.5700    1.1710 C   0  0  0  0  0  3  0  0  0  0  0  0
   -9.0330   -1.4700    2.3660 N   0  0  0  0  0  0  0  0  0  0  0  0
  -10.2360   -2.2370    2.8290 C   0  0  0  0  0  3  0  0  0  0  0  0
  -11.5380   -2.1030    2.0970 C   0  0  0  0  0  3  0  0  0  0  0  0
   -4.3170    0.3720    3.5350 O   0  0  0  0  0  0  0  0  0  0  0  0
   -3.3680    0.3260    2.3740 C   0  0  0  0  0  0  0  0  0  0  0  0
   -2.3240   -0.7480    2.3010 C   0  0  0  0  0  3  0  0  0  0  0  0
   -1.3750   -0.7940    1.1400 C   0  0  0  0  0  3  0  0  0  0  0  0
   -1.4700    0.2350    0.0520 C   0  0  0  0  0  3  0  0  0  0  0  0
   -2.5150    1.3090    0.1260 C   0  0  0  0  0  0  0  0  0  0  0  0
   -3.4630    1.3550    1.2870 C   0  0  0  0  0  3  0  0  0  0  0  0
   -2.6100    2.3370   -0.9620 N   0  0  0  0  0  0  0  0  0  0  0  0
   -2.8410    3.7780   -0.6140 O   0  0  0  0  0  0  0  0  0  0  0  0
   -2.4750    1.9250   -2.3980 O   0  0  0  0  0  0  0  0  0  0  0  0
  1  2  2  0  0  0  0
  2  3  1  0  0  0  0
  3  7  1  1  0  0  0
  4  3  1  0  0  0  0
  5  4  2  0  0  0  0
  6  1  1  0  0  0  0
  6  5  2  0  0  0  0
  7  8  1  0  0  0  0
  9  7  1  0  0  0  0
 10  9  1  0  0  0  0
 11 10  2  0  0  0  0
 12 11  1  0  0  0  0
 13 11  1  0  0  0  0
 13 14  1  0  0  0  0
 14  9  2  0  0  0  0
 15 13  1  0  0  0  0
 16 17  1  0  0  0  0
 17 22  1  0  0  0  0
 18 17  1  0  0  0  0
 18 19  2  0  0  0  0
 19 20  1  0  0  0  0
 20 21  1  0  0  0  0
 20  1  1  0  0  0  0
 22 21  2  0  0  0  0
 23  5  1  0  0  0  0
 24 23  1  0  0  0  0
 25 24  1  0  0  0  0
 26 25  2  0  0  0  0
 27 28  2  0  0  0  0
 27 26  1  0  0  0  0
 28 29  1  0  0  0  0
 29 24  2  0  0  0  0
 30 31  2  0  0  0  0
 30 28  1  0  0  0  0
 32 30  2  0  0  0  0
M  END
>  <MODEL>
       4

>  <REMARK>
  Name = 
  4 active torsions:
  status: ('A' for Active; 'I' for Inactive)
    1  A    between atoms: C_1  and  N_11
    2  A    between atoms: C_5  and  O_23
    3  A    between atoms: O_23  and  C_24
    4  A    between atoms: C_28  and  N_30
                            x       y       z     vdW  Elec       q    Type
                         _______ _______ _______ _____ _____    ______ ____

>  <TORSDO>
F 4

$$$$
=
 OpenBabel03122313433D

 23 25  0  0  0  0  0  0  0  0999 V2000
    2.9140   -2.7230   -3.5010 C   0  0  0  0  0  0  0  0  0  0  0  0
    4.0890   -2.8520   -2.5770 N   0  0  0  0  0  0  0  0  0  0  0  0
    4.0020   -2.3280   -1.1740 C   0  0  0  0  0  3  0  0  0  0  0  0
    2.7390   -1.6750   -0.6950 C   0  0  0  0  0  3  0  0  0  0  0  0
    1.5640   -1.5470   -1.6180 C   0  0  0  0  0  0  0  0  0  0  0  0
    1.6520   -2.0700   -3.0210 N   0  0  0  0  0  0  0  0  0  0  0  0
    3.0020   -3.2470   -4.9040 N   0  0  0  0  0  0  0  0  0  0  0  0
    2.2650   -3.7830   -5.2760 H   0  0  0  0  0  0  0  0  0  0  0  0
    0.3010   -0.8940   -1.1390 C   0  0  0  0  0  0  0  0  0  0  0  0
   -0.0910   -0.9900    0.3060 C   0  0  0  0  0  3  0  0  0  0  0  0
   -1.3530   -0.3370    0.7850 C   0  0  0  0  0  3  0  0  0  0  0  0
   -2.2240    0.4110   -0.1800 C   0  0  0  0  0  3  0  0  0  0  0  0
   -1.8330    0.5060   -1.6250 N   0  0  0  0  0  0  0  0  0  0  0  0
   -0.5700   -0.1460   -2.1040 C   0  0  0  0  0  3  0  0  0  0  0  0
    6.4130   -3.7480   -6.8680 C   0  0  0  0  0  0  0  0  0  0  0  0
    6.6340   -2.3670   -7.4110 C   0  0  0  0  0  3  0  0  0  0  0  0
    5.6430   -1.2800   -7.1180 C   0  0  0  0  0  3  0  0  0  0  0  0
    4.4330   -1.5730   -6.2820 C   0  0  0  0  0  3  0  0  0  0  0  0
    4.2130   -2.9540   -5.7390 C   0  0  0  0  0  0  0  0  0  0  0  0
    5.2030   -4.0410   -6.0320 C   0  0  0  0  0  3  0  0  0  0  0  0
    8.8170   -4.7150   -6.6730 O   0  0  0  0  0  0  0  0  0  0  0  0
    7.4040   -4.8360   -7.1610 N   0  0  0  0  0  0  0  0  0  0  0  0
    6.9810   -6.0450   -7.9420 O   0  0  0  0  0  0  0  0  0  0  0  0
  1  6  1  0  0  0  0
  1  2  2  0  0  0  0
  2  3  1  0  0  0  0
  3  4  2  0  0  0  0
  5  9  1  0  0  0  0
  5  4  1  0  0  0  0
  6  5  2  0  0  0  0
  7  1  1  0  0  0  0
  8  7  1  0  0  0  0
  9 10  1  0  0  0  0
 10 11  2  0  0  0  0
 12 11  1  0  0  0  0
 13 12  2  0  0  0  0
 14 13  1  0  0  0  0
 14  9  2  0  0  0  0
 15 20  1  0  0  0  0
 16 17  1  0  0  0  0
 16 15  2  0  0  0  0
 17 18  2  0  0  0  0
 18 19  1  0  0  0  0
 19  7  1  0  0  0  0
 20 19  2  0  0  0  0
 22 15  1  0  0  0  0
 22 21  2  0  0  0  0
 23 22  2  0  0  0  0
M  END
>  <MODEL>
       2

>  <REMARK>
  Name = 
  3 active torsions:
  status: ('A' for Active; 'I' for Inactive)
    1  A    between atoms: C_5  and  C_7
    2  A    between atoms: N_13  and  C_19
    3  A    between atoms: C_15  and  N_22
                            x       y       z     vdW  Elec       q    Type
                         _______ _______ _______ _____ _____    ______ ____

>  <TORSDO>
F 3

$$$$
=
 OpenBabel03122313433D

 23 25  0  0  0  0  0  0  0  0999 V2000
    4.1260   -2.9520   -4.7900 C   0  0  0  0  0  0  0  0  0  0  0  0
    5.1680   -3.9260   -4.3260 N   0  0  0  0  0  0  0  0  0  0  0  0
    6.5460   -3.8890   -4.9180 C   0  0  0  0  0  3  0  0  0  0  0  0
    6.8820   -2.8770   -5.9730 C   0  0  0  0  0  3  0  0  0  0  0  0
    5.8400   -1.9030   -6.4370 C   0  0  0  0  0  0  0  0  0  0  0  0
    4.4620   -1.9400   -5.8460 N   0  0  0  0  0  0  0  0  0  0  0  0
    2.7480   -2.9900   -4.1990 N   0  0  0  0  0  0  0  0  0  0  0  0
    2.0210   -3.4550   -4.6720 H   0  0  0  0  0  0  0  0  0  0  0  0
    6.1760   -0.8910   -7.4920 C   0  0  0  0  0  0  0  0  0  0  0  0
    7.3190    0.0580   -7.2850 C   0  0  0  0  0  3  0  0  0  0  0  0
    7.6550    1.0690   -8.3400 C   0  0  0  0  0  3  0  0  0  0  0  0
    6.8480    1.1320   -9.6030 C   0  0  0  0  0  3  0  0  0  0  0  0
    5.7050    0.1830   -9.8100 N   0  0  0  0  0  0  0  0  0  0  0  0
    5.3690   -0.8290   -8.7550 C   0  0  0  0  0  3  0  0  0  0  0  0
    0.8420   -1.0930   -1.2800 C   0  0  0  0  0  0  0  0  0  0  0  0
    1.9350   -0.9720   -0.2590 C   0  0  0  0  0  3  0  0  0  0  0  0
    3.2990   -1.5240   -0.5520 C   0  0  0  0  0  3  0  0  0  0  0  0
    3.5700   -2.1960   -1.8650 C   0  0  0  0  0  3  0  0  0  0  0  0
    2.4770   -2.3170   -2.8850 C   0  0  0  0  0  0  0  0  0  0  0  0
    1.1130   -1.7650   -2.5930 C   0  0  0  0  0  3  0  0  0  0  0  0
   -1.0860   -0.6320    0.4000 O   0  0  0  0  0  0  0  0  0  0  0  0
   -0.5220   -0.5410   -0.9870 N   0  0  0  0  0  0  0  0  0  0  0  0
   -1.3210    0.1020   -2.0820 O   0  0  0  0  0  0  0  0  0  0  0  0
  1  2  2  0  0  0  0
  1  7  1  0  0  0  0
  3  2  1  0  0  0  0
  4  3  2  0  0  0  0
  5  4  1  0  0  0  0
  5  6  2  0  0  0  0
  6  1  1  0  0  0  0
  7 19  1  0  0  0  0
  8  7  1  0  0  0  0
  9 10  1  0  0  0  0
  9  5  1  0  0  0  0
 11 10  2  0  0  0  0
 12 11  1  0  0  0  0
 13 12  2  0  0  0  0
 13 14  1  0  0  0  0
 14  9  2  0  0  0  0
 15 22  1  0  0  0  0
 15 16  1  0  0  0  0
 17 16  2  0  0  0  0
 18 17  1  0  0  0  0
 19 20  1  0  0  0  0
 19 18  2  0  0  0  0
 20 15  2  0  0  0  0
 22 21  2  0  0  0  0
 23 22  2  0  0  0  0
M  END
>  <MODEL>
       3

>  <REMARK>
  Name = 
  3 active torsions:
  status: ('A' for Active; 'I' for Inactive)
    1  A    between atoms: C_5  and  C_7
    2  A    between atoms: N_13  and  C_19
    3  A    between atoms: C_15  and  N_22
                            x       y       z     vdW  Elec       q    Type
                         _______ _______ _______ _____ _____    ______ ____

>  <TORSDO>
F 3

$$$$
=
 OpenBabel03122313433D

 23 25  0  0  0  0  0  0  0  0999 V2000
    3.1680   -2.8010   -3.1410 C   0  0  0  0  0  0  0  0  0  0  0  0
    4.3170   -2.7730   -2.1760 N   0  0  0  0  0  0  0  0  0  0  0  0
    4.1550   -2.1170   -0.8370 C   0  0  0  0  0  3  0  0  0  0  0  0
    2.8450   -1.4900   -0.4620 C   0  0  0  0  0  3  0  0  0  0  0  0
    1.6970   -1.5190   -1.4260 C   0  0  0  0  0  0  0  0  0  0  0  0
    1.8580   -2.1740   -2.7650 N   0  0  0  0  0  0  0  0  0  0  0  0
    3.3290   -3.4570   -4.4800 N   0  0  0  0  0  0  0  0  0  0  0  0
    2.5980   -4.0010   -4.8530 H   0  0  0  0  0  0  0  0  0  0  0  0
    0.3870   -0.8920   -1.0510 C   0  0  0  0  0  0  0  0  0  0  0  0
   -0.1000   -0.9620    0.3660 C   0  0  0  0  0  3  0  0  0  0  0  0
   -1.4100   -0.3350    0.7410 C   0  0  0  0  0  3  0  0  0  0  0  0
   -2.2330    0.3620   -0.3010 C   0  0  0  0  0  3  0  0  0  0  0  0
   -1.7470    0.4330   -1.7180 N   0  0  0  0  0  0  0  0  0  0  0  0
   -0.4360   -0.1940   -2.0930 C   0  0  0  0  0  3  0  0  0  0  0  0
    6.0600   -1.9220   -6.9170 C   0  0  0  0  0  0  0  0  0  0  0  0
    7.1550   -2.9390   -6.7920 C   0  0  0  0  0  3  0  0  0  0  0  0
    6.9750   -4.1290   -5.8970 C   0  0  0  0  0  3  0  0  0  0  0  0
    5.7000   -4.3020   -5.1260 C   0  0  0  0  0  3  0  0  0  0  0  0
    4.6050   -3.2840   -5.2510 C   0  0  0  0  0  0  0  0  0  0  0  0
    4.7850   -2.0950   -6.1460 C   0  0  0  0  0  3  0  0  0  0  0  0
    7.1000    0.4150   -7.3710 O   0  0  0  0  0  0  0  0  0  0  0  0
    6.2400   -0.7320   -7.8120 N   0  0  0  0  0  0  0  0  0  0  0  0
    5.5600   -0.6890   -9.1480 O   0  0  0  0  0  0  0  0  0  0  0  0
  1  6  1  0  0  0  0
  1  2  2  0  0  0  0
  2  3  1  0  0  0  0
  3  4  2  0  0  0  0
  5  9  1  0  0  0  0
  5  4  1  0  0  0  0
  6  5  2  0  0  0  0
  7  1  1  0  0  0  0
  8  7  1  0  0  0  0
  9 10  1  0  0  0  0
 10 11  2  0  0  0  0
 12 11  1  0  0  0  0
 13 12  2  0  0  0  0
 14 13  1  0  0  0  0
 14  9  2  0  0  0  0
 15 16  2  0  0  0  0
 15 20  1  0  0  0  0
 16 17  1  0  0  0  0
 17 18  2  0  0  0  0
 19 18  1  0  0  0  0
 19  7  1  0  0  0  0
 20 19  2  0  0  0  0
 22 21  2  0  0  0  0
 22 15  1  0  0  0  0
 23 22  2  0  0  0  0
M  END
>  <MODEL>
       4

>  <REMARK>
  Name = 
  3 active torsions:
  status: ('A' for Active; 'I' for Inactive)
    1  A    between atoms: C_5  and  C_7
    2  A    between atoms: N_13  and  C_19
    3  A    between atoms: C_15  and  N_22
                            x       y       z     vdW  Elec       q    Type
                         _______ _______ _______ _____ _____    ______ ____

>  <TORSDO>
F 3

$$$$
=
 OpenBabel03122313433D

 27 30  0  0  0  0  0  0  0  0999 V2000
    1.3820   -0.0500   -1.5700 O   0  0  0  0  0  0  0  0  0  0  0  0
    0.5890   -1.3220   -1.5180 C   0  0  0  0  0  0  0  0  0  0  0  0
    1.2950   -2.6450   -1.4710 N   0  0  0  0  0  0  0  0  0  0  0  0
   -0.9100   -1.2720   -1.5140 N   0  0  0  0  0  0  0  0  0  0  0  0
    0.7740   -3.4800   -1.4370 H   0  0  0  0  0  0  0  0  0  0  0  0
   -1.4310   -2.1070   -1.4800 H   0  0  0  0  0  0  0  0  0  0  0  0
   -1.6160    0.0510   -1.5610 C   0  0  0  0  0  0  0  0  0  0  0  0
   -1.6990    0.8110   -2.8520 N   0  0  0  0  0  0  0  0  0  0  0  0
   -2.4050    2.1340   -2.9000 C   0  0  0  0  0  3  0  0  0  0  0  0
   -3.0280    2.6960   -1.6570 N   0  0  0  0  0  0  0  0  0  0  0  0
   -2.9460    1.9360   -0.3660 C   0  0  0  0  0  0  0  0  0  0  0  0
   -3.4610    2.2370    1.0100 N   0  0  0  0  0  2  0  0  0  0  0  0
   -3.0730    1.1000    1.9090 N   0  0  0  0  0  0  0  0  0  0  0  0
   -3.3100    0.8480    3.3680 C   0  0  0  0  0  2  0  0  0  0  0  0
   -2.7920   -0.4060    4.0070 C   0  0  0  0  0  3  0  0  0  0  0  0
   -2.0370   -1.4090    3.1850 C   0  0  0  0  0  3  0  0  0  0  0  0
   -1.8000   -1.1580    1.7260 C   0  0  0  0  0  3  0  0  0  0  0  0
   -2.3180    0.0970    1.0870 C   0  0  0  0  0  0  0  0  0  0  0  0
   -2.2400    0.6140   -0.3190 C   0  0  0  0  0  0  0  0  0  0  0  0
    2.7940   -2.6960   -1.4750 C   0  0  0  0  0  0  0  0  0  0  0  0
    3.5510   -2.6180   -0.1820 C   0  0  0  0  0  3  0  0  0  0  0  0
    5.0500   -2.6680   -0.1870 C   0  0  0  0  0  3  0  0  0  0  0  0
    5.7920   -2.7970   -1.4840 C   0  0  0  0  0  3  0  0  0  0  0  0
    5.0350   -2.8740   -2.7770 C   0  0  0  0  0  0  0  0  0  0  0  0
    3.5360   -2.8240   -2.7720 C   0  0  0  0  0  3  0  0  0  0  0  0
    5.7770   -3.0030   -4.0740 C   0  0  0  0  0  2  0  0  0  0  0  0
    6.5200   -3.1310   -5.3710 N   0  0  0  0  0  1  0  0  0  0  0  0
  1  2  2  0  0  0  0
  2  4  1  0  0  0  0
  2  3  1  0  0  0  0
  3  5  1  0  0  0  0
  4  6  1  0  0  0  0
  7  4  1  0  0  0  0
  7 19  2  0  0  0  0
  8  7  1  0  0  0  0
  9  8  2  0  0  0  0
  9 10  1  0  0  0  0
 10 11  2  0  0  0  0
 11 19  1  0  0  0  0
 11 12  1  0  0  0  0
 12 13  1  0  0  0  0
 13 14  1  0  0  0  0
 14 15  1  0  0  0  0
 16 15  2  0  0  0  0
 17 16  1  0  0  0  0
 18 17  2  0  0  0  0
 18 13  1  0  0  0  0
 19 18  1  0  0  0  0
 20  3  1  0  0  0  0
 20 21  1  0  0  0  0
 22 21  2  0  0  0  0
 23 22  1  0  0  0  0
 24 25  1  0  0  0  0
 24 23  2  0  0  0  0
 25 20  2  0  0  0  0
 26 24  1  0  0  0  0
 27 26  1  0  0  0  0
M  END
>  <MODEL>
       2

>  <REMARK>
  Name = 
  2 active torsions:
  status: ('A' for Active; 'I' for Inactive)
    1  A    between atoms: N_3  and  C_20
    2  A    between atoms: C_24  and  C_26
                            x       y       z     vdW  Elec       q    Type
                         _______ _______ _______ _____ _____    ______ ____

>  <TORSDO>
F 2

$$$$
=
 OpenBabel03122313433D

 27 30  0  0  1  0  0  0  0  0999 V2000
    1.3450   -0.4710   -0.1970 O   0  0  0  0  0  0  0  0  0  0  0  0
    0.6530   -1.5110   -1.0270 C   0  0  0  0  0  0  0  0  0  0  0  0
   -0.8180   -1.3990   -1.2960 N   0  0  0  0  0  0  0  0  0  0  0  0
    1.4320   -2.6640   -1.5880 N   0  0  0  0  0  0  0  0  0  0  0  0
   -1.2720   -2.0820   -1.8410 H   0  0  0  0  0  0  0  0  0  0  0  0
    0.9780   -3.3470   -2.1320 H   0  0  0  0  0  0  0  0  0  0  0  0
    2.9040   -2.7770   -1.3180 C   0  0  0  0  0  0  0  0  0  0  0  0
    3.4010   -2.8900    0.0920 N   0  0  0  0  0  0  0  0  0  0  0  0
    4.8730   -3.0030    0.3620 C   0  0  0  0  0  2  0  0  0  0  0  0
    5.8460   -3.0020   -0.7790 N   0  0  0  0  0  0  0  0  0  0  0  0
    5.3490   -2.8880   -2.1900 C   0  0  0  0  0  0  0  0  0  0  0  0
    6.0650   -2.8600   -3.5080 N   0  0  0  0  0  2  0  0  0  0  0  0
    5.0360   -2.7310   -4.5910 N   0  0  0  0  0  0  0  0  0  0  0  0
    5.1550   -2.6530   -6.0850 C   0  0  0  0  0  2  0  0  0  0  0  0
    3.9230   -2.5230   -6.9300 C   0  0  0  0  0  3  0  0  0  0  0  0
    2.5710   -2.4710   -6.2820 C   0  0  0  0  0  3  0  0  0  0  0  0
    2.4520   -2.5490   -4.7890 C   0  0  0  0  0  3  0  0  0  0  0  0
    3.6840   -2.6780   -3.9430 C   0  0  0  0  0  0  0  0  0  0  0  0
    3.8770   -2.7760   -2.4590 C   0  0  2  0  0  3  0  0  0  0  0  0
   -1.5970   -0.2460   -0.7360 C   0  0  0  0  0  0  0  0  0  0  0  0
   -1.9900   -0.2400    0.7120 C   0  0  0  0  0  3  0  0  0  0  0  0
   -2.7690    0.9130    1.2720 C   0  0  0  0  0  3  0  0  0  0  0  0
   -3.1550    2.0590    0.3860 C   0  0  0  0  0  3  0  0  0  0  0  0
   -2.7620    2.0530   -1.0620 C   0  0  0  0  0  0  0  0  0  0  0  0
   -1.9830    0.9000   -1.6230 C   0  0  0  0  0  3  0  0  0  0  0  0
   -3.1480    3.2000   -1.9490 C   0  0  0  0  0  2  0  0  0  0  0  0
   -3.5340    4.3460   -2.8360 N   0  0  0  0  0  1  0  0  0  0  0  0
  2  1  2  0  0  0  0
  3  2  1  0  0  0  0
  3 20  1  0  0  0  0
  4  7  1  0  0  0  0
  4  2  1  0  0  0  0
  5  3  1  0  0  0  0
  6  4  1  0  0  0  0
  7  8  2  0  0  0  0
  8  9  1  0  0  0  0
 10  9  1  0  0  0  0
 11 10  2  0  0  0  0
 12 11  1  0  0  0  0
 13 18  1  0  0  0  0
 13 12  1  0  0  0  0
 14 13  1  0  0  0  0
 15 16  2  0  0  0  0
 15 14  1  0  0  0  0
 16 17  1  0  0  0  0
 17 18  2  0  0  0  0
 19 18  1  1  0  0  0
 19 11  1  0  0  0  0
 19  7  1  0  0  0  0
 20 21  1  0  0  0  0
 21 22  2  0  0  0  0
 23 22  1  0  0  0  0
 24 23  2  0  0  0  0
 25 24  1  0  0  0  0
 25 20  2  0  0  0  0
 26 24  1  0  0  0  0
 27 26  1  0  0  0  0
M  END
>  <MODEL>
       3

>  <REMARK>
  Name = 
  2 active torsions:
  status: ('A' for Active; 'I' for Inactive)
    1  A    between atoms: N_3  and  C_20
    2  A    between atoms: C_24  and  C_26
                            x       y       z     vdW  Elec       q    Type
                         _______ _______ _______ _____ _____    ______ ____

>  <TORSDO>
F 2

$$$$
=
 OpenBabel03122313433D

 27 30  0  0  1  0  0  0  0  0999 V2000
    1.4740   -1.1840    0.2190 O   0  0  0  0  0  0  0  0  0  0  0  0
    0.5500   -1.6510   -0.8660 C   0  0  0  0  0  0  0  0  0  0  0  0
    1.1070   -2.3100   -2.0930 N   0  0  0  0  0  0  0  0  0  0  0  0
   -0.9310   -1.4590   -0.7250 N   0  0  0  0  0  0  0  0  0  0  0  0
    0.5000   -2.6160   -2.8060 H   0  0  0  0  0  0  0  0  0  0  0  0
   -1.5380   -1.7660   -1.4370 H   0  0  0  0  0  0  0  0  0  0  0  0
   -1.4880   -0.8010    0.5020 C   0  0  0  0  0  0  0  0  0  0  0  0
   -1.3270   -1.4530    1.8430 N   0  0  0  0  0  0  0  0  0  0  0  0
   -1.8840   -0.7950    3.0700 C   0  0  0  0  0  2  0  0  0  0  0  0
   -2.6030    0.5170    2.9570 N   0  0  0  0  0  0  0  0  0  0  0  0
   -2.7640    1.1700    1.6160 C   0  0  0  0  0  0  0  0  0  0  0  0
   -3.4200    2.4520    1.1960 N   0  0  0  0  0  2  0  0  0  0  0  0
   -3.2680    2.5860   -0.2900 N   0  0  0  0  0  0  0  0  0  0  0  0
   -3.7160    3.6450   -1.2530 C   0  0  0  0  0  2  0  0  0  0  0  0
   -3.4140    3.5040   -2.7160 C   0  0  0  0  0  3  0  0  0  0  0  0
   -2.6640    2.3050   -3.2150 C   0  0  0  0  0  3  0  0  0  0  0  0
   -2.2170    1.2460   -2.2520 C   0  0  0  0  0  3  0  0  0  0  0  0
   -2.5190    1.3860   -0.7890 C   0  0  0  0  0  0  0  0  0  0  0  0
   -2.2070    0.5110    0.3890 C   0  0  2  0  0  3  0  0  0  0  0  0
    2.5880   -2.5010   -2.2350 C   0  0  0  0  0  0  0  0  0  0  0  0
    3.4400   -2.6850   -1.0140 C   0  0  0  0  0  3  0  0  0  0  0  0
    4.9210   -2.8770   -1.1560 C   0  0  0  0  0  3  0  0  0  0  0  0
    5.5500   -2.8840   -2.5180 C   0  0  0  0  0  3  0  0  0  0  0  0
    4.6970   -2.7000   -3.7380 C   0  0  0  0  0  0  0  0  0  0  0  0
    3.2160   -2.5090   -3.5970 C   0  0  0  0  0  3  0  0  0  0  0  0
    5.3260   -2.7080   -5.1000 C   0  0  0  0  0  2  0  0  0  0  0  0
    5.9540   -2.7160   -6.4620 N   0  0  0  0  0  1  0  0  0  0  0  0
  2  4  1  0  0  0  0
  2  1  2  0  0  0  0
  3  2  1  0  0  0  0
  4  7  1  0  0  0  0
  5  3  1  0  0  0  0
  6  4  1  0  0  0  0
  7  8  2  0  0  0  0
  8  9  1  0  0  0  0
 10  9  1  0  0  0  0
 11 10  2  0  0  0  0
 12 11  1  0  0  0  0
 13 12  1  0  0  0  0
 14 13  1  0  0  0  0
 15 14  1  0  0  0  0
 16 15  2  0  0  0  0
 16 17  1  0  0  0  0
 17 18  2  0  0  0  0
 18 13  1  0  0  0  0
 19 18  1  6  0  0  0
 19  7  1  0  0  0  0
 19 11  1  0  0  0  0
 20  3  1  0  0  0  0
 20 21  1  0  0  0  0
 22 21  2  0  0  0  0
 23 22  1  0  0  0  0
 24 25  1  0  0  0  0
 24 23  2  0  0  0  0
 25 20  2  0  0  0  0
 26 24  1  0  0  0  0
 27 26  1  0  0  0  0
M  END
>  <MODEL>
       4

>  <REMARK>
  Name = 
  2 active torsions:
  status: ('A' for Active; 'I' for Inactive)
    1  A    between atoms: N_3  and  C_20
    2  A    between atoms: C_24  and  C_26
                            x       y       z     vdW  Elec       q    Type
                         _______ _______ _______ _____ _____    ______ ____

>  <TORSDO>
F 2

$$$$
=
 OpenBabel03122313433D

 32 35  0  0  0  0  0  0  0  0999 V2000
    2.8210   -2.4350   -5.7680 S   0  0  0  0  0  0  0  0  0  0  0  0
    5.3380   -2.7090   -6.6270 C   0  0  0  0  0  0  0  0  0  0  0  0
    4.0940   -3.2070   -5.9520 C   0  0  0  0  0  0  0  0  0  0  0  0
    4.3470   -4.6130   -5.4940 N   0  0  0  0  0  0  0  0  0  0  0  0
    5.7460   -4.9840   -5.8860 C   0  0  0  0  0  0  0  0  0  0  0  0
    6.5420   -6.2410   -5.6950 C   0  0  0  0  0  3  0  0  0  0  0  0
    7.9500   -6.3220   -6.2050 C   0  0  0  0  0  3  0  0  0  0  0  0
    8.5630   -5.1450   -6.9050 C   0  0  0  0  0  3  0  0  0  0  0  0
    7.7670   -3.8880   -7.0960 C   0  0  0  0  0  3  0  0  0  0  0  0
    6.3590   -3.8070   -6.5860 C   0  0  0  0  0  0  0  0  0  0  0  0
    3.7060   -5.1910   -5.0190 H   0  0  0  0  0  0  0  0  0  0  0  0
    5.6860    0.1700   -9.3360 C   0  0  0  0  0  1  0  0  0  0  0  0
    5.4970   -1.1880   -8.7270 N   0  0  0  0  0  0  0  0  0  0  0  0
    5.5270   -1.3520   -7.2360 C   0  0  0  0  0  0  0  0  0  0  0  0
    5.7460   -0.1580   -6.3550 O   0  0  0  0  0  0  0  0  0  0  0  0
    5.3530   -1.9710   -9.3060 H   0  0  0  0  0  0  0  0  0  0  0  0
    2.8210   -1.1710   -4.9590 S   0  0  0  0  0  0  0  0  0  0  0  0
    1.8520   -1.0060   -3.8260 C   0  0  0  0  0  0  0  0  0  0  0  0
    0.5260   -0.3090   -3.8950 N   0  0  0  0  0  0  0  0  0  0  0  0
   -0.1070   -0.3810   -2.5370 C   0  0  0  0  0  0  0  0  0  0  0  0
   -1.4140    0.1330   -2.0100 C   0  0  0  0  0  3  0  0  0  0  0  0
   -1.7850   -0.0950   -0.5750 C   0  0  0  0  0  3  0  0  0  0  0  0
   -0.8500   -0.8360    0.3340 C   0  0  0  0  0  3  0  0  0  0  0  0
    0.4570   -1.3500   -0.1930 C   0  0  0  0  0  3  0  0  0  0  0  0
    0.8290   -1.1220   -1.6280 C   0  0  0  0  0  0  0  0  0  0  0  0
    2.0400   -1.5090   -2.4250 C   0  0  0  0  0  0  0  0  0  0  0  0
    0.1380    0.1200   -4.6920 H   0  0  0  0  0  0  0  0  0  0  0  0
    3.2290   -2.2650   -1.9110 C   0  0  0  0  0  0  0  0  0  0  0  0
    3.7190   -3.4790   -2.6430 O   0  0  0  0  0  0  0  0  0  0  0  0
    3.9280   -1.8060   -0.6660 N   0  0  0  0  0  0  0  0  0  0  0  0
    5.1170   -2.5630   -0.1520 C   0  0  0  0  0  1  0  0  0  0  0  0
    3.6070   -1.0090   -0.1860 H   0  0  0  0  0  0  0  0  0  0  0  0
  1 17  1  0  0  0  0
  2 10  1  0  0  0  0
  2  3  2  0  0  0  0
  3  1  1  0  0  0  0
  3  4  1  0  0  0  0
  4 11  1  0  0  0  0
  5  6  1  0  0  0  0
  5  4  1  0  0  0  0
  7  6  2  0  0  0  0
  8  7  1  0  0  0  0
  9  8  2  0  0  0  0
  9 10  1  0  0  0  0
 10  5  2  0  0  0  0
 12 13  1  0  0  0  0
 13 14  1  0  0  0  0
 14  2  1  0  0  0  0
 14 15  2  0  0  0  0
 16 13  1  0  0  0  0
 17 18  1  0  0  0  0
 18 26  2  0  0  0  0
 19 18  1  0  0  0  0
 19 20  1  0  0  0  0
 20 21  2  0  0  0  0
 20 25  1  0  0  0  0
 21 22  1  0  0  0  0
 22 23  2  0  0  0  0
 24 23  1  0  0  0  0
 25 24  2  0  0  0  0
 26 28  1  0  0  0  0
 26 25  1  0  0  0  0
 27 19  1  0  0  0  0
 28 30  1  0  0  0  0
 29 28  2  0  0  0  0
 30 32  1  0  0  0  0
 30 31  1  0  0  0  0
M  END
>  <MODEL>
       2

>  <REMARK>
  Name = 
  5 active torsions:
  status: ('A' for Active; 'I' for Inactive)
    1  A    between atoms: S_1  and  C_3
    2  A    between atoms: S_1  and  S_17
    3  A    between atoms: C_2  and  C_14
    4  A    between atoms: S_17  and  C_18
    5  A    between atoms: C_26  and  C_28
                            x       y       z     vdW  Elec       q    Type
                         _______ _______ _______ _____ _____    ______ ____

>  <TORSDO>
F 5

$$$$
=
 OpenBabel03122313433D

 32 35  0  0  0  0  0  0  0  0999 V2000
    0.5390   -0.6360   -2.2260 S   0  0  0  0  0  0  0  0  0  0  0  0
   -1.5740    0.3220   -0.8990 C   0  0  0  0  0  0  0  0  0  0  0  0
   -0.3480   -0.5340   -1.0210 C   0  0  0  0  0  0  0  0  0  0  0  0
   -0.1650   -1.2680    0.2740 N   0  0  0  0  0  0  0  0  0  0  0  0
   -1.2780   -0.8670    1.1960 C   0  0  0  0  0  0  0  0  0  0  0  0
   -1.6100   -1.2700    2.6020 C   0  0  0  0  0  3  0  0  0  0  0  0
   -2.8140   -0.6900    3.2840 C   0  0  0  0  0  3  0  0  0  0  0  0
   -3.6850    0.2930    2.5590 C   0  0  0  0  0  3  0  0  0  0  0  0
   -3.3530    0.6960    1.1530 C   0  0  0  0  0  3  0  0  0  0  0  0
   -2.1490    0.1160    0.4710 C   0  0  0  0  0  0  0  0  0  0  0  0
    0.5590   -1.9030    0.4820 H   0  0  0  0  0  0  0  0  0  0  0  0
   -3.2440    3.4680   -2.6490 C   0  0  0  0  0  1  0  0  0  0  0  0
   -2.6900    2.5650   -1.5870 N   0  0  0  0  0  0  0  0  0  0  0  0
   -2.1290    1.2250   -1.9610 C   0  0  0  0  0  0  0  0  0  0  0  0
   -2.1220    0.7880   -3.3960 O   0  0  0  0  0  0  0  0  0  0  0  0
   -2.6940    2.8520   -0.6450 H   0  0  0  0  0  0  0  0  0  0  0  0
    1.0980   -1.9670   -2.6350 S   0  0  0  0  0  0  0  0  0  0  0  0
    2.3100   -2.0320   -3.5160 C   0  0  0  0  0  0  0  0  0  0  0  0
    2.4060   -1.5250   -4.9240 N   0  0  0  0  0  0  0  0  0  0  0  0
    3.7950   -1.7960   -5.4210 C   0  0  0  0  0  0  0  0  0  0  0  0
    4.4640   -1.5150   -6.7340 C   0  0  0  0  0  3  0  0  0  0  0  0
    5.8950   -1.9090   -6.9460 C   0  0  0  0  0  3  0  0  0  0  0  0
    6.6580   -2.5840   -5.8450 C   0  0  0  0  0  3  0  0  0  0  0  0
    5.9900   -2.8650   -4.5320 C   0  0  0  0  0  3  0  0  0  0  0  0
    4.5580   -2.4710   -4.3200 C   0  0  0  0  0  0  0  0  0  0  0  0
    3.6400   -2.6170   -3.1420 C   0  0  0  0  0  0  0  0  0  0  0  0
    1.6840   -1.0910   -5.4330 H   0  0  0  0  0  0  0  0  0  0  0  0
    3.9910   -3.2380   -1.8230 C   0  0  0  0  0  0  0  0  0  0  0  0
    4.3850   -4.6840   -1.7560 O   0  0  0  0  0  0  0  0  0  0  0  0
    3.9490   -2.4140   -0.5710 N   0  0  0  0  0  0  0  0  0  0  0  0
    4.3000   -3.0350    0.7490 C   0  0  0  0  0  1  0  0  0  0  0  0
    3.6910   -1.4650   -0.6150 H   0  0  0  0  0  0  0  0  0  0  0  0
  1  3  1  0  0  0  0
  2 10  1  0  0  0  0
  3  2  2  0  0  0  0
  3  4  1  0  0  0  0
  4 11  1  0  0  0  0
  4  5  1  0  0  0  0
  5  6  1  0  0  0  0
  6  7  2  0  0  0  0
  8  7  1  0  0  0  0
  9  8  2  0  0  0  0
 10  9  1  0  0  0  0
 10  5  2  0  0  0  0
 12 13  1  0  0  0  0
 13 16  1  0  0  0  0
 14 13  1  0  0  0  0
 14  2  1  0  0  0  0
 15 14  2  0  0  0  0
 17  1  1  0  0  0  0
 18 26  2  0  0  0  0
 18 17  1  0  0  0  0
 19 18  1  0  0  0  0
 20 19  1  0  0  0  0
 20 25  1  0  0  0  0
 21 20  2  0  0  0  0
 22 21  1  0  0  0  0
 22 23  2  0  0  0  0
 23 24  1  0  0  0  0
 24 25  2  0  0  0  0
 25 26  1  0  0  0  0
 26 28  1  0  0  0  0
 27 19  1  0  0  0  0
 28 29  2  0  0  0  0
 28 30  1  0  0  0  0
 30 31  1  0  0  0  0
 32 30  1  0  0  0  0
M  END
>  <MODEL>
       3

>  <REMARK>
  Name = 
  5 active torsions:
  status: ('A' for Active; 'I' for Inactive)
    1  A    between atoms: S_1  and  C_3
    2  A    between atoms: S_1  and  S_17
    3  A    between atoms: C_2  and  C_14
    4  A    between atoms: S_17  and  C_18
    5  A    between atoms: C_26  and  C_28
                            x       y       z     vdW  Elec       q    Type
                         _______ _______ _______ _____ _____    ______ ____

>  <TORSDO>
F 5

$$$$
=
 OpenBabel03122313433D

 32 35  0  0  0  0  0  0  0  0999 V2000
    1.0990   -1.9480   -2.6150 S   0  0  0  0  0  3  0  0  0  0  0  0
    3.6390   -2.5870   -3.1460 C   0  0  0  0  0  0  0  0  0  0  0  0
    2.3030   -2.0090   -3.5070 C   0  0  0  0  0  0  0  0  0  0  0  0
    2.3820   -1.5040   -4.9170 N   0  0  0  0  0  0  0  0  0  0  0  0
    3.7670   -1.7690   -5.4280 C   0  0  0  0  0  0  0  0  0  0  0  0
    4.4210   -1.4880   -6.7480 C   0  0  0  0  0  3  0  0  0  0  0  0
    5.8530   -1.8760   -6.9740 C   0  0  0  0  0  3  0  0  0  0  0  0
    6.6300   -2.5450   -5.8790 C   0  0  0  0  0  3  0  0  0  0  0  0
    5.9760   -2.8260   -4.5590 C   0  0  0  0  0  3  0  0  0  0  0  0
    4.5450   -2.4390   -4.3330 C   0  0  0  0  0  0  0  0  0  0  0  0
    1.6530   -1.0740   -5.4190 H   0  0  0  0  0  0  0  0  0  0  0  0
    4.3460   -2.9940    0.7380 C   0  0  0  0  0  1  0  0  0  0  0  0
    3.9790   -2.3770   -0.5790 N   0  0  0  0  0  0  0  0  0  0  0  0
    4.0070   -3.2050   -1.8290 C   0  0  0  0  0  0  0  0  0  0  0  0
    4.4010   -4.6500   -1.7630 O   0  0  0  0  0  0  0  0  0  0  0  0
    3.7200   -1.4280   -0.6230 H   0  0  0  0  0  0  0  0  0  0  0  0
    0.5420   -0.6190   -2.1970 S   0  0  0  0  0  3  0  0  0  0  0  0
   -0.3480   -0.5240   -0.9930 C   0  0  0  0  0  0  0  0  0  0  0  0
   -0.1640   -1.2620    0.3000 N   0  0  0  0  0  0  0  0  0  0  0  0
   -1.2810   -0.8680    1.2210 C   0  0  0  0  0  0  0  0  0  0  0  0
   -1.6150   -1.2770    2.6250 C   0  0  0  0  0  3  0  0  0  0  0  0
   -2.8220   -0.7040    3.3060 C   0  0  0  0  0  3  0  0  0  0  0  0
   -3.6960    0.2780    2.5820 C   0  0  0  0  0  3  0  0  0  0  0  0
   -3.3620    0.6860    1.1780 C   0  0  0  0  0  3  0  0  0  0  0  0
   -2.1540    0.1130    0.4970 C   0  0  0  0  0  0  0  0  0  0  0  0
   -1.5780    0.3260   -0.8710 C   0  0  0  0  0  0  0  0  0  0  0  0
    0.5620   -1.8940    0.5070 H   0  0  0  0  0  0  0  0  0  0  0  0
   -2.1330    1.2300   -1.9310 C   0  0  0  0  0  0  0  0  0  0  0  0
   -2.1390    0.7900   -3.3650 O   0  0  0  0  0  0  0  0  0  0  0  0
   -2.6840    2.5740   -1.5570 N   0  0  0  0  0  0  0  0  0  0  0  0
   -3.2400    3.4780   -2.6180 C   0  0  0  0  0  1  0  0  0  0  0  0
   -2.6800    2.8630   -0.6160 H   0  0  0  0  0  0  0  0  0  0  0  0
  1 17  2  0  0  0  0
  2 14  1  0  0  0  0
  3  2  2  0  0  0  0
  3  1  1  0  0  0  0
  4  3  1  0  0  0  0
  5  4  1  0  0  0  0
  5 10  1  0  0  0  0
  6  5  2  0  0  0  0
  7  6  1  0  0  0  0
  7  8  2  0  0  0  0
  8  9  1  0  0  0  0
  9 10  2  0  0  0  0
 10  2  1  0  0  0  0
 11  4  1  0  0  0  0
 13 12  1  0  0  0  0
 14 15  2  0  0  0  0
 14 13  1  0  0  0  0
 16 13  1  0  0  0  0
 17 18  1  0  0  0  0
 18 26  2  0  0  0  0
 18 19  1  0  0  0  0
 19 27  1  0  0  0  0
 19 20  1  0  0  0  0
 20 21  1  0  0  0  0
 21 22  2  0  0  0  0
 23 22  1  0  0  0  0
 24 23  2  0  0  0  0
 25 24  1  0  0  0  0
 25 20  2  0  0  0  0
 26 25  1  0  0  0  0
 28 30  1  0  0  0  0
 28 26  1  0  0  0  0
 29 28  2  0  0  0  0
 30 32  1  0  0  0  0
 31 30  1  0  0  0  0
M  END
>  <MODEL>
       4

>  <REMARK>
  Name = 
  5 active torsions:
  status: ('A' for Active; 'I' for Inactive)
    1  A    between atoms: S_1  and  C_3
    2  A    between atoms: S_1  and  S_17
    3  A    between atoms: C_2  and  C_14
    4  A    between atoms: S_17  and  C_18
    5  A    between atoms: C_26  and  C_28
                            x       y       z     vdW  Elec       q    Type
                         _______ _______ _______ _____ _____    ______ ____

>  <TORSDO>
F 5

$$$$
=
 OpenBabel03122313433D

 29 32  0  0  0  0  0  0  0  0999 V2000
    3.7490   -2.1180   -4.0340 C   0  0  0  0  0  0  0  0  0  0  0  0
    2.4020   -1.4590   -3.9710 C   0  0  0  0  0  3  0  0  0  0  0  0
    1.9400   -1.4870   -2.5440 N   0  0  0  0  0  0  0  0  0  0  0  0
    3.0000   -2.1630   -1.7260 C   0  0  0  0  0  0  0  0  0  0  0  0
    3.0920   -2.4740   -0.2620 N   0  0  0  0  0  0  0  0  0  0  0  0
    4.3020   -3.1740    0.2820 C   0  0  0  0  0  3  0  0  0  0  0  0
    5.4200   -3.5640   -0.6390 N   0  0  0  0  0  0  0  0  0  0  0  0
    5.3280   -3.2530   -2.1040 C   0  0  0  0  0  0  0  0  0  0  0  0
    4.1180   -2.5530   -2.6470 C   0  0  0  0  0  0  0  0  0  0  0  0
    5.7880   -3.8800   -6.9470 C   0  0  0  0  0  0  0  0  0  0  0  0
    6.2410   -2.6890   -7.7370 C   0  0  0  0  0  3  0  0  0  0  0  0
    5.8640   -1.3070   -7.2930 C   0  0  0  0  0  3  0  0  0  0  0  0
    5.0330   -1.1160   -6.0590 C   0  0  0  0  0  3  0  0  0  0  0  0
    4.5800   -2.3080   -5.2690 C   0  0  0  0  0  0  0  0  0  0  0  0
    4.9570   -3.6900   -5.7130 C   0  0  0  0  0  3  0  0  0  0  0  0
    6.1730   -6.3910   -6.4040 C   0  0  0  0  0  1  0  0  0  0  0  0
    6.1650   -5.2620   -7.3910 O   0  0  0  0  0  0  0  0  0  0  0  0
    0.6440   -0.9360   -2.0260 C   0  0  0  0  0  0  0  0  0  0  0  0
   -0.2580   -0.1590   -2.9380 C   0  0  0  0  0  3  0  0  0  0  0  0
   -1.5530    0.3930   -2.4200 C   0  0  0  0  0  3  0  0  0  0  0  0
   -1.9460    0.1660   -0.9910 C   0  0  0  0  0  3  0  0  0  0  0  0
   -1.0440   -0.6110   -0.0790 C   0  0  0  0  0  0  0  0  0  0  0  0
    0.2510   -1.1620   -0.5970 C   0  0  0  0  0  3  0  0  0  0  0  0
   -1.4380   -0.8380    1.3510 C   0  0  0  0  0  2  0  0  0  0  0  0
   -2.8530   -1.1970    1.6920 O   0  0  0  0  0  0  0  0  0  0  0  0
   -3.5150   -1.2830    0.9870 H   0  0  0  0  0  0  0  0  0  0  0  0
    6.4460   -3.6430   -3.0250 N   0  0  0  0  0  0  0  0  0  0  0  0
    7.2400   -4.1030   -2.6680 H   0  0  0  0  0  0  0  0  0  0  0  0
    6.3860   -3.4390   -3.9860 H   0  0  0  0  0  0  0  0  0  0  0  0
  1  2  2  0  0  0  0
  1  9  1  0  0  0  0
  2  3  1  0  0  0  0
  3 18  1  0  0  0  0
  3  4  1  0  0  0  0
  4  5  1  0  0  0  0
  5  6  2  0  0  0  0
  7  6  1  0  0  0  0
  8  7  2  0  0  0  0
  9  8  1  0  0  0  0
  9  4  2  0  0  0  0
 10 15  1  0  0  0  0
 11 12  1  0  0  0  0
 11 10  2  0  0  0  0
 12 13  2  0  0  0  0
 13 14  1  0  0  0  0
 14  1  1  0  0  0  0
 15 14  2  0  0  0  0
 17 10  1  0  0  0  0
 17 16  1  0  0  0  0
 18 23  1  0  0  0  0
 19 20  1  0  0  0  0
 19 18  2  0  0  0  0
 20 21  2  0  0  0  0
 21 22  1  0  0  0  0
 22 24  1  0  0  0  0
 23 22  2  0  0  0  0
 24 25  1  0  0  0  0
 26 25  1  0  0  0  0
 27 28  1  0  0  0  0
 27  8  1  0  0  0  0
 29 27  1  0  0  0  0
M  END
>  <MODEL>
       2

>  <REMARK>
  Name = 
  6 active torsions:
  status: ('A' for Active; 'I' for Inactive)
    1  A    between atoms: C_1  and  C_17
    2  A    between atoms: N_3  and  C_21
    3  A    between atoms: C_8  and  N_9
    4  A    between atoms: C_13  and  O_20
    5  A    between atoms: C_25  and  C_27
    6  A    between atoms: C_27  and  O_28
                            x       y       z     vdW  Elec       q    Type
                         _______ _______ _______ _____ _____    ______ ____

>  <TORSDO>
F 6

$$$$
=
 OpenBabel03122313433D

 29 32  0  0  0  0  0  0  0  0999 V2000
    3.8100   -2.2340   -4.0300 C   0  0  0  0  0  0  0  0  0  0  0  0
    2.4590   -1.5870   -3.9610 C   0  0  0  0  0  3  0  0  0  0  0  0
    2.0110   -1.6010   -2.5290 N   0  0  0  0  0  0  0  0  0  0  0  0
    3.0860   -2.2570   -1.7140 C   0  0  0  0  0  0  0  0  0  0  0  0
    3.1950   -2.5480   -0.2460 N   0  0  0  0  0  0  0  0  0  0  0  0
    4.4170   -3.2310    0.2940 C   0  0  0  0  0  3  0  0  0  0  0  0
    5.5290   -3.6220   -0.6340 N   0  0  0  0  0  0  0  0  0  0  0  0
    5.4200   -3.3300   -2.1010 C   0  0  0  0  0  0  0  0  0  0  0  0
    4.1980   -2.6480   -2.6410 C   0  0  0  0  0  0  0  0  0  0  0  0
    6.0640   -1.4480   -7.2000 C   0  0  0  0  0  0  0  0  0  0  0  0
    6.2710   -2.8290   -7.7500 C   0  0  0  0  0  3  0  0  0  0  0  0
    5.6570   -4.0100   -7.0600 C   0  0  0  0  0  3  0  0  0  0  0  0
    4.8370   -3.8120   -5.8200 C   0  0  0  0  0  3  0  0  0  0  0  0
    4.6300   -2.4320   -5.2700 C   0  0  0  0  0  0  0  0  0  0  0  0
    5.2440   -1.2500   -5.9600 C   0  0  0  0  0  3  0  0  0  0  0  0
    6.1550    0.1790   -9.2230 C   0  0  0  0  0  1  0  0  0  0  0  0
    6.6780   -0.2660   -7.8900 O   0  0  0  0  0  0  0  0  0  0  0  0
    0.7160   -1.0560   -2.0050 C   0  0  0  0  0  0  0  0  0  0  0  0
    0.2740   -1.3830   -0.6090 C   0  0  0  0  0  3  0  0  0  0  0  0
   -1.0220   -0.8380   -0.0850 C   0  0  0  0  0  3  0  0  0  0  0  0
   -1.8750    0.0360   -0.9570 C   0  0  0  0  0  3  0  0  0  0  0  0
   -1.4330    0.3630   -2.3520 C   0  0  0  0  0  0  0  0  0  0  0  0
   -0.1380   -0.1820   -2.8760 C   0  0  0  0  0  3  0  0  0  0  0  0
   -2.2860    1.2360   -3.2240 C   0  0  0  0  0  2  0  0  0  0  0  0
   -2.4560    2.6900   -2.8930 O   0  0  0  0  0  0  0  0  0  0  0  0
   -2.0130    3.0650   -2.1150 H   0  0  0  0  0  0  0  0  0  0  0  0
    6.5320   -3.7210   -3.0290 N   0  0  0  0  0  0  0  0  0  0  0  0
    7.3330   -4.1690   -2.6740 H   0  0  0  0  0  0  0  0  0  0  0  0
    6.4600   -3.5300   -3.9920 H   0  0  0  0  0  0  0  0  0  0  0  0
  1  2  2  0  0  0  0
  1  9  1  0  0  0  0
  2  3  1  0  0  0  0
  3 18  1  0  0  0  0
  3  4  1  0  0  0  0
  4  5  1  0  0  0  0
  5  6  2  0  0  0  0
  7  6  1  0  0  0  0
  8  7  2  0  0  0  0
  9  8  1  0  0  0  0
  9  4  2  0  0  0  0
 10 15  1  0  0  0  0
 11 10  2  0  0  0  0
 11 12  1  0  0  0  0
 12 13  2  0  0  0  0
 13 14  1  0  0  0  0
 14  1  1  0  0  0  0
 15 14  2  0  0  0  0
 16 17  1  0  0  0  0
 17 10  1  0  0  0  0
 18 19  1  0  0  0  0
 19 20  2  0  0  0  0
 21 20  1  0  0  0  0
 22 21  2  0  0  0  0
 23 22  1  0  0  0  0
 23 18  2  0  0  0  0
 24 25  1  0  0  0  0
 24 22  1  0  0  0  0
 25 26  1  0  0  0  0
 27 28  1  0  0  0  0
 27  8  1  0  0  0  0
 29 27  1  0  0  0  0
M  END
>  <MODEL>
       3

>  <REMARK>
  Name = 
  6 active torsions:
  status: ('A' for Active; 'I' for Inactive)
    1  A    between atoms: C_1  and  C_17
    2  A    between atoms: N_3  and  C_21
    3  A    between atoms: C_8  and  N_9
    4  A    between atoms: C_13  and  O_20
    5  A    between atoms: C_25  and  C_27
    6  A    between atoms: C_27  and  O_28
                            x       y       z     vdW  Elec       q    Type
                         _______ _______ _______ _____ _____    ______ ____

>  <TORSDO>
F 6

$$$$
=
 OpenBabel03122313433D

 29 32  0  0  0  0  0  0  0  0999 V2000
    2.1670   -1.8590   -2.8550 C   0  0  0  0  0  0  0  0  0  0  0  0
    2.6370   -1.9940   -4.2730 C   0  0  0  0  0  3  0  0  0  0  0  0
    4.0520   -2.4890   -4.2480 N   0  0  0  0  0  0  0  0  0  0  0  0
    4.4580   -2.6600   -2.8140 C   0  0  0  0  0  0  0  0  0  0  0  0
    5.7370   -3.1210   -2.1810 N   0  0  0  0  0  0  0  0  0  0  0  0
    5.8520   -3.1920   -0.6870 C   0  0  0  0  0  3  0  0  0  0  0  0
    4.6870   -2.8030    0.1740 N   0  0  0  0  0  0  0  0  0  0  0  0
    3.4070   -2.3430   -0.4590 C   0  0  0  0  0  0  0  0  0  0  0  0
    3.2930   -2.2710   -1.9530 C   0  0  0  0  0  0  0  0  0  0  0  0
   -1.1440    0.3100   -2.5730 C   0  0  0  0  0  0  0  0  0  0  0  0
   -1.9030   -0.4650   -1.5370 C   0  0  0  0  0  3  0  0  0  0  0  0
   -1.3060   -1.7050   -0.9410 C   0  0  0  0  0  3  0  0  0  0  0  0
    0.0510   -2.1700   -1.3800 C   0  0  0  0  0  3  0  0  0  0  0  0
    0.8100   -1.3950   -2.4160 C   0  0  0  0  0  0  0  0  0  0  0  0
    0.2130   -0.1550   -3.0120 C   0  0  0  0  0  3  0  0  0  0  0  0
   -2.7670    2.3320   -2.4030 C   0  0  0  0  0  1  0  0  0  0  0  0
   -1.7420    1.5500   -3.1690 O   0  0  0  0  0  0  0  0  0  0  0  0
    4.9120   -2.7640   -5.4460 C   0  0  0  0  0  0  0  0  0  0  0  0
    5.2570   -1.6520   -6.3930 C   0  0  0  0  0  3  0  0  0  0  0  0
    6.1170   -1.9270   -7.5910 C   0  0  0  0  0  3  0  0  0  0  0  0
    6.6310   -3.3130   -7.8430 C   0  0  0  0  0  3  0  0  0  0  0  0
    6.2850   -4.4250   -6.8960 C   0  0  0  0  0  0  0  0  0  0  0  0
    5.4260   -4.1500   -5.6980 C   0  0  0  0  0  3  0  0  0  0  0  0
    6.7990   -5.8110   -7.1480 C   0  0  0  0  0  2  0  0  0  0  0  0
    7.9670   -6.0230   -8.0660 O   0  0  0  0  0  0  0  0  0  0  0  0
    8.3900   -5.2630   -8.4960 H   0  0  0  0  0  0  0  0  0  0  0  0
    2.2420   -1.9540    0.4020 N   0  0  0  0  0  0  0  0  0  0  0  0
    2.3170   -2.0010    1.3820 H   0  0  0  0  0  0  0  0  0  0  0  0
    1.4020   -1.6520   -0.0140 H   0  0  0  0  0  0  0  0  0  0  0  0
  1 14  1  0  0  0  0
  1  9  1  0  0  0  0
  2  3  1  0  0  0  0
  2  1  2  0  0  0  0
  3  4  1  0  0  0  0
  4  5  2  0  0  0  0
  4  9  1  0  0  0  0
  5  6  1  0  0  0  0
  6  7  2  0  0  0  0
  8  7  1  0  0  0  0
  8 27  1  0  0  0  0
  9  8  2  0  0  0  0
 10 11  1  0  0  0  0
 11 12  2  0  0  0  0
 13 12  1  0  0  0  0
 14 13  2  0  0  0  0
 15 10  2  0  0  0  0
 15 14  1  0  0  0  0
 17 10  1  0  0  0  0
 17 16  1  0  0  0  0
 18  3  1  0  0  0  0
 19 18  2  0  0  0  0
 20 19  1  0  0  0  0
 21 20  2  0  0  0  0
 21 22  1  0  0  0  0
 22 23  2  0  0  0  0
 23 18  1  0  0  0  0
 24 22  1  0  0  0  0
 25 24  1  0  0  0  0
 26 25  1  0  0  0  0
 27 28  1  0  0  0  0
 29 27  1  0  0  0  0
M  END
>  <MODEL>
       4

>  <REMARK>
  Name = 
  6 active torsions:
  status: ('A' for Active; 'I' for Inactive)
    1  A    between atoms: C_1  and  C_17
    2  A    between atoms: N_3  and  C_21
    3  A    between atoms: C_8  and  N_9
    4  A    between atoms: C_13  and  O_20
    5  A    between atoms: C_25  and  C_27
    6  A    between atoms: C_27  and  O_28
                            x       y       z     vdW  Elec       q    Type
                         _______ _______ _______ _____ _____    ______ ____

>  <TORSDO>
F 6

$$$$
=
 OpenBabel03122313433D

 24 27  0  0  0  0  0  0  0  0999 V2000
    4.6570   -1.7090   -5.3770 C   0  0  0  0  0  0  0  0  0  0  0  0
    3.6270   -1.0540   -4.5050 C   0  0  0  0  0  3  0  0  0  0  0  0
    3.1890   -2.0510   -3.4740 C   0  0  0  0  0  0  0  0  0  0  0  0
    3.9490   -3.3230   -3.7070 N   0  0  0  0  0  0  0  0  0  0  0  0
    4.8560   -3.1120   -4.8830 N   0  0  0  0  0  0  0  0  0  0  0  0
    5.7970   -4.1250   -5.4640 C   0  0  0  0  0  0  0  0  0  0  0  0
    7.2360   -3.8930   -5.8160 N   0  0  0  0  0  0  0  0  0  0  0  0
    7.7930   -5.1730   -6.3640 C   0  0  0  0  0  0  0  0  0  0  0  0
    9.1980   -5.3910   -6.8420 O   0  0  0  0  0  0  0  0  0  0  0  0
    6.6970   -6.1980   -6.3510 C   0  0  0  0  0  2  0  0  0  0  0  0
    5.4640   -5.5500   -5.7950 S   0  0  0  0  0  0  0  0  0  0  0  0
    7.4830    0.8310  -10.0200 Cl  0  0  0  0  0  0  0  0  0  0  0  0
    6.7760    0.1960   -8.8590 C   0  0  0  0  0  0  0  0  0  0  0  0
    5.4710   -0.5120   -9.0720 C   0  0  0  0  0  3  0  0  0  0  0  0
    4.7640   -1.1470   -7.9110 C   0  0  0  0  0  3  0  0  0  0  0  0
    5.3630   -1.0740   -6.5370 C   0  0  0  0  0  0  0  0  0  0  0  0
    6.6690   -0.3670   -6.3250 C   0  0  0  0  0  3  0  0  0  0  0  0
    7.3750    0.2680   -7.4860 C   0  0  0  0  0  3  0  0  0  0  0  0
    2.1710   -1.8170   -2.3970 C   0  0  0  0  0  0  0  0  0  0  0  0
    2.5370   -1.0200   -1.1800 C   0  0  0  0  0  3  0  0  0  0  0  0
    1.5180   -0.7860   -0.1030 C   0  0  0  0  0  3  0  0  0  0  0  0
    0.1350   -1.3490   -0.2440 C   0  0  0  0  0  3  0  0  0  0  0  0
   -0.2300   -2.1450   -1.4620 C   0  0  0  0  0  3  0  0  0  0  0  0
    0.7880   -2.3790   -2.5380 C   0  0  0  0  0  3  0  0  0  0  0  0
  1  5  1  0  0  0  0
  1  2  2  0  0  0  0
  2  3  1  0  0  0  0
  3 19  1  0  0  0  0
  4  3  2  0  0  0  0
  5  4  1  0  0  0  0
  6  5  1  0  0  0  0
  7  6  2  0  0  0  0
  8 10  1  0  0  0  0
  8  7  1  0  0  0  0
  9  8  2  0  0  0  0
 10 11  1  0  0  0  0
 11  6  1  0  0  0  0
 12 13  1  0  0  0  0
 13 18  1  0  0  0  0
 14 13  2  0  0  0  0
 14 15  1  0  0  0  0
 15 16  2  0  0  0  0
 16 17  1  0  0  0  0
 16  1  1  0  0  0  0
 18 17  2  0  0  0  0
 19 20  1  0  0  0  0
 20 21  2  0  0  0  0
 22 21  1  0  0  0  0
 23 22  2  0  0  0  0
 24 19  2  0  0  0  0
 24 23  1  0  0  0  0
M  END
>  <MODEL>
       2

>  <REMARK>
  Name = 
  2 active torsions:
  status: ('A' for Active; 'I' for Inactive)
    1  A    between atoms: C_1  and  C_10
    2  A    between atoms: C_3  and  C_19
                            x       y       z     vdW  Elec       q    Type
                         _______ _______ _______ _____ _____    ______ ____

>  <TORSDO>
F 2

$$$$
=
 OpenBabel03122313433D

 24 27  0  0  0  0  0  0  0  0999 V2000
   -1.2700   -0.5510    0.0050 C   0  0  0  0  0  0  0  0  0  0  0  0
   -0.0840   -1.4630   -0.1140 C   0  0  0  0  0  3  0  0  0  0  0  0
    0.6070   -1.1590   -1.4100 C   0  0  0  0  0  0  0  0  0  0  0  0
   -0.1520   -0.0600   -2.0930 N   0  0  0  0  0  0  0  0  0  0  0  0
   -1.3110    0.3160   -1.2180 N   0  0  0  0  0  0  0  0  0  0  0  0
   -2.3330    1.3730   -1.5150 C   0  0  0  0  0  0  0  0  0  0  0  0
   -3.1040    1.5200   -2.7940 N   0  0  0  0  0  0  0  0  0  0  0  0
   -4.0110    2.7070   -2.6540 C   0  0  0  0  0  0  0  0  0  0  0  0
   -4.9610    3.2170   -3.6970 O   0  0  0  0  0  0  0  0  0  0  0  0
   -3.8020    3.2920   -1.2890 C   0  0  0  0  0  2  0  0  0  0  0  0
   -2.7650    2.4680   -0.5850 S   0  0  0  0  0  0  0  0  0  0  0  0
   -5.1610   -0.4010    4.5690 Cl  0  0  0  0  0  0  0  0  0  0  0  0
   -4.1880   -0.4390    3.4280 C   0  0  0  0  0  0  0  0  0  0  0  0
   -4.6900   -0.4640    2.0150 C   0  0  0  0  0  3  0  0  0  0  0  0
   -3.7170   -0.5020    0.8740 C   0  0  0  0  0  3  0  0  0  0  0  0
   -2.2420   -0.5140    1.1460 C   0  0  0  0  0  0  0  0  0  0  0  0
   -1.7400   -0.4880    2.5590 C   0  0  0  0  0  3  0  0  0  0  0  0
   -2.7130   -0.4510    3.7000 C   0  0  0  0  0  3  0  0  0  0  0  0
    1.8400   -1.8350   -1.9320 C   0  0  0  0  0  0  0  0  0  0  0  0
    1.9590   -2.1530   -3.3930 C   0  0  0  0  0  3  0  0  0  0  0  0
    3.1920   -2.8300   -3.9150 C   0  0  0  0  0  3  0  0  0  0  0  0
    4.3050   -3.1880   -2.9750 C   0  0  0  0  0  3  0  0  0  0  0  0
    4.1860   -2.8700   -1.5140 C   0  0  0  0  0  3  0  0  0  0  0  0
    2.9530   -2.1940   -0.9930 C   0  0  0  0  0  3  0  0  0  0  0  0
  1 16  1  0  0  0  0
  2  1  2  0  0  0  0
  3  2  1  0  0  0  0
  4  3  2  0  0  0  0
  4  5  1  0  0  0  0
  5  1  1  0  0  0  0
  6  5  1  0  0  0  0
  6 11  1  0  0  0  0
  7  8  1  0  0  0  0
  7  6  2  0  0  0  0
  8 10  1  0  0  0  0
  9  8  2  0  0  0  0
 10 11  1  0  0  0  0
 13 18  1  0  0  0  0
 13 12  1  0  0  0  0
 14 13  2  0  0  0  0
 15 16  2  0  0  0  0
 15 14  1  0  0  0  0
 16 17  1  0  0  0  0
 17 18  2  0  0  0  0
 19  3  1  0  0  0  0
 19 24  1  0  0  0  0
 20 19  2  0  0  0  0
 21 20  1  0  0  0  0
 21 22  2  0  0  0  0
 22 23  1  0  0  0  0
 23 24  2  0  0  0  0
M  END
>  <MODEL>
       3

>  <REMARK>
  Name = 
  2 active torsions:
  status: ('A' for Active; 'I' for Inactive)
    1  A    between atoms: C_1  and  C_10
    2  A    between atoms: C_3  and  C_19
                            x       y       z     vdW  Elec       q    Type
                         _______ _______ _______ _____ _____    ______ ____

>  <TORSDO>
F 2

$$$$
=
 OpenBabel03122313433D

 24 27  0  0  0  0  0  0  0  0999 V2000
   -4.1160    1.3510    1.4590 C   0  0  0  0  0  0  0  0  0  0  0  0
   -3.0830    1.3820    0.3720 C   0  0  0  0  0  3  0  0  0  0  0  0
   -2.2450    0.1430    0.4930 C   0  0  0  0  0  0  0  0  0  0  0  0
   -2.7610   -0.6530    1.6550 N   0  0  0  0  0  0  0  0  0  0  0  0
   -3.9170    0.0940    2.2520 N   0  0  0  0  0  0  0  0  0  0  0  0
   -4.7320   -0.3410    3.4340 C   0  0  0  0  0  0  0  0  0  0  0  0
   -4.2820   -0.3340    4.8650 N   0  0  0  0  0  0  0  0  0  0  0  0
   -5.4110   -0.8480    5.7080 C   0  0  0  0  0  0  0  0  0  0  0  0
   -5.3960   -1.0100    7.1990 O   0  0  0  0  0  0  0  0  0  0  0  0
   -6.5590   -1.1730    4.7980 C   0  0  0  0  0  2  0  0  0  0  0  0
   -6.1390   -0.8600    3.3930 S   0  0  0  0  0  0  0  0  0  0  0  0
   -8.3070    5.5270    2.4600 Cl  0  0  0  0  0  0  0  0  0  0  0  0
   -7.2590    4.4830    2.2100 C   0  0  0  0  0  0  0  0  0  0  0  0
   -6.0430    4.4170    3.0850 C   0  0  0  0  0  3  0  0  0  0  0  0
   -4.9950    3.3730    2.8340 C   0  0  0  0  0  3  0  0  0  0  0  0
   -5.1640    2.3950    1.7090 C   0  0  0  0  0  0  0  0  0  0  0  0
   -6.3800    2.4610    0.8350 C   0  0  0  0  0  3  0  0  0  0  0  0
   -7.4280    3.5050    1.0850 C   0  0  0  0  0  3  0  0  0  0  0  0
   -1.0950   -0.2330   -0.3920 C   0  0  0  0  0  0  0  0  0  0  0  0
    0.1420   -0.8380    0.2030 C   0  0  0  0  0  3  0  0  0  0  0  0
    1.2940   -1.2140   -0.6830 C   0  0  0  0  0  3  0  0  0  0  0  0
    1.2070   -0.9850   -2.1630 C   0  0  0  0  0  3  0  0  0  0  0  0
   -0.0300   -0.3800   -2.7570 C   0  0  0  0  0  3  0  0  0  0  0  0
   -1.1810   -0.0040   -1.8720 C   0  0  0  0  0  3  0  0  0  0  0  0
  1 16  1  0  0  0  0
  1  5  1  0  0  0  0
  2  3  1  0  0  0  0
  2  1  2  0  0  0  0
  3  4  2  0  0  0  0
  4  5  1  0  0  0  0
  5  6  1  0  0  0  0
  6  7  2  0  0  0  0
  7  8  1  0  0  0  0
  8  9  2  0  0  0  0
 10  8  1  0  0  0  0
 11  6  1  0  0  0  0
 11 10  1  0  0  0  0
 13 12  1  0  0  0  0
 13 14  1  0  0  0  0
 15 14  2  0  0  0  0
 16 15  1  0  0  0  0
 17 18  1  0  0  0  0
 17 16  2  0  0  0  0
 18 13  2  0  0  0  0
 19 20  1  0  0  0  0
 19  3  1  0  0  0  0
 21 20  2  0  0  0  0
 22 21  1  0  0  0  0
 23 22  2  0  0  0  0
 23 24  1  0  0  0  0
 24 19  2  0  0  0  0
M  END
>  <MODEL>
       4

>  <REMARK>
  Name = 
  2 active torsions:
  status: ('A' for Active; 'I' for Inactive)
    1  A    between atoms: C_1  and  C_10
    2  A    between atoms: C_3  and  C_19
                            x       y       z     vdW  Elec       q    Type
                         _______ _______ _______ _____ _____    ______ ____

>  <TORSDO>
F 2

$$$$
=
 OpenBabel03122313433D

 30 32  0  0  0  0  0  0  0  0999 V2000
   -1.2790   -1.3560   -1.1880 N   0  0  0  0  0  0  0  0  0  0  0  0
   -1.8620   -2.1470   -1.1250 H   0  0  0  0  0  0  0  0  0  0  0  0
   -1.8820    0.0150   -1.2640 C   0  0  0  0  0  0  0  0  0  0  0  0
   -1.8330    0.7860   -2.5490 N   0  0  0  0  0  0  0  0  0  0  0  0
   -2.4360    2.1580   -2.6250 C   0  0  0  0  0  3  0  0  0  0  0  0
   -3.0880    2.7580   -1.4150 N   0  0  0  0  0  0  0  0  0  0  0  0
   -3.1370    1.9870   -0.1300 C   0  0  0  0  0  0  0  0  0  0  0  0
   -3.7890    2.5880    1.0800 C   0  0  0  0  0  3  0  0  0  0  0  0
   -3.8390    1.8170    2.3660 C   0  0  0  0  0  0  0  0  0  0  0  0
   -3.2360    0.4460    2.4420 C   0  0  0  0  0  0  0  0  0  0  0  0
   -2.5830   -0.1550    1.2320 C   0  0  0  0  0  3  0  0  0  0  0  0
   -2.5340    0.6160   -0.0540 C   0  0  0  0  0  0  0  0  0  0  0  0
    2.3670   -2.3540   -2.3950 C   0  0  0  0  0  0  0  0  0  0  0  0
    0.8770   -2.1880   -2.3750 C   0  0  0  0  0  3  0  0  0  0  0  0
    0.2120   -1.5220   -1.2070 C   0  0  0  0  0  0  0  0  0  0  0  0
    1.0370   -1.0220   -0.0590 C   0  0  0  0  0  3  0  0  0  0  0  0
    2.5280   -1.1880   -0.0790 C   0  0  0  0  0  3  0  0  0  0  0  0
    3.1930   -1.8540   -1.2470 C   0  0  0  0  0  0  0  0  0  0  0  0
    4.6840   -2.0190   -1.2670 Cl  0  0  0  0  0  0  0  0  0  0  0  0
    2.9700   -2.3880   -4.9220 C   0  0  0  0  0  0  0  0  0  0  0  0
    2.2430   -1.0900   -5.1130 O   0  0  0  0  0  0  0  0  0  0  0  0
    3.0320   -3.0200   -3.5630 N   0  0  0  0  0  0  0  0  0  0  0  0
    3.5100   -3.8720   -3.4380 H   0  0  0  0  0  0  0  0  0  0  0  0
    3.6350   -3.0540   -6.0900 O   0  0  0  0  0  0  0  0  0  0  0  0
    5.9680   -2.0700   -5.5030 C   0  0  0  0  0  1  0  0  0  0  0  0
    5.1320   -3.1300   -6.1570 C   0  0  0  0  0  2  0  0  0  0  0  0
   -4.4910    2.4180    3.5760 O   0  0  0  0  0  0  0  0  0  0  0  0
   -5.9840    2.3960    3.7120 C   0  0  0  0  0  1  0  0  0  0  0  0
   -3.2850   -0.3250    3.7280 O   0  0  0  0  0  0  0  0  0  0  0  0
   -4.5360   -1.0550    4.1170 C   0  0  0  0  0  1  0  0  0  0  0  0
  1  2  1  0  0  0  0
  3  1  1  0  0  0  0
  3 12  1  0  0  0  0
  4  3  2  0  0  0  0
  5  4  1  0  0  0  0
  5  6  2  0  0  0  0
  6  7  1  0  0  0  0
  7 12  2  0  0  0  0
  7  8  1  0  0  0  0
  8  9  2  0  0  0  0
  9 10  1  0  0  0  0
  9 27  1  0  0  0  0
 10 29  1  0  0  0  0
 11 10  2  0  0  0  0
 12 11  1  0  0  0  0
 13 14  2  0  0  0  0
 13 18  1  0  0  0  0
 14 15  1  0  0  0  0
 15  1  1  0  0  0  0
 15 16  2  0  0  0  0
 17 16  1  0  0  0  0
 18 17  2  0  0  0  0
 19 18  1  0  0  0  0
 20 22  1  0  0  0  0
 21 20  2  0  0  0  0
 22 23  1  0  0  0  0
 22 13  1  0  0  0  0
 24 20  1  0  0  0  0
 26 24  1  0  0  0  0
 26 25  1  0  0  0  0
 27 28  1  0  0  0  0
 29 30  1  0  0  0  0
M  END
>  <MODEL>
       2

>  <REMARK>
  Name = 
  6 active torsions:
  status: ('A' for Active; 'I' for Inactive)
    1  A    between atoms: N_1  and  C_19
    2  A    between atoms: C_9  and  O_13
    3  A    between atoms: C_10  and  O_15
    4  A    between atoms: C_17  and  N_26
    5  A    between atoms: C_24  and  O_28
    6  A    between atoms: O_28  and  C_30
                            x       y       z     vdW  Elec       q    Type
                         _______ _______ _______ _____ _____    ______ ____

>  <TORSDO>
F 6

$$$$
=
 OpenBabel03122313433D

 30 32  0  0  0  0  0  0  0  0999 V2000
   -0.1070   -0.3880   -1.5930 N   0  0  0  0  0  0  0  0  0  0  0  0
   -0.4630    0.0100   -2.4200 H   0  0  0  0  0  0  0  0  0  0  0  0
   -0.9270   -0.3690   -0.3380 C   0  0  0  0  0  0  0  0  0  0  0  0
   -0.5920   -1.2980    0.7910 N   0  0  0  0  0  0  0  0  0  0  0  0
   -1.4130   -1.2800    2.0470 C   0  0  0  0  0  3  0  0  0  0  0  0
   -2.5690   -0.3330    2.1730 N   0  0  0  0  0  0  0  0  0  0  0  0
   -2.9040    0.5960    1.0440 C   0  0  0  0  0  0  0  0  0  0  0  0
   -4.0610    1.5440    1.1710 C   0  0  0  0  0  3  0  0  0  0  0  0
   -4.3960    2.4730    0.0420 C   0  0  0  0  0  0  0  0  0  0  0  0
   -3.5750    2.4540   -1.2140 C   0  0  0  0  0  0  0  0  0  0  0  0
   -2.4190    1.5070   -1.3400 C   0  0  0  0  0  3  0  0  0  0  0  0
   -2.0840    0.5780   -0.2110 C   0  0  0  0  0  0  0  0  0  0  0  0
    2.9970   -2.6250   -2.6470 C   0  0  0  0  0  0  0  0  0  0  0  0
    1.6330   -2.0010   -2.6510 C   0  0  0  0  0  3  0  0  0  0  0  0
    1.2570   -1.0120   -1.5880 C   0  0  0  0  0  0  0  0  0  0  0  0
    2.2460   -0.6460   -0.5210 C   0  0  0  0  0  3  0  0  0  0  0  0
    3.6100   -1.2700   -0.5160 C   0  0  0  0  0  3  0  0  0  0  0  0
    3.9850   -2.2600   -1.5790 C   0  0  0  0  0  0  0  0  0  0  0  0
    5.3490   -2.8840   -1.5740 Cl  0  0  0  0  0  0  0  0  0  0  0  0
    3.7420   -3.1370   -5.0820 C   0  0  0  0  0  0  0  0  0  0  0  0
    3.7370   -1.6690   -5.3920 O   0  0  0  0  0  0  0  0  0  0  0  0
    3.3730   -3.6150   -3.7090 N   0  0  0  0  0  0  0  0  0  0  0  0
    3.3760   -4.5780   -3.5060 H   0  0  0  0  0  0  0  0  0  0  0  0
    4.1180   -4.1270   -6.1450 O   0  0  0  0  0  0  0  0  0  0  0  0
    5.8300   -6.0810   -6.1430 C   0  0  0  0  0  1  0  0  0  0  0  0
    5.5330   -4.6150   -6.2490 C   0  0  0  0  0  2  0  0  0  0  0  0
   -5.5520    3.4200    0.1690 O   0  0  0  0  0  0  0  0  0  0  0  0
   -6.9390    2.9590   -0.1670 C   0  0  0  0  0  1  0  0  0  0  0  0
   -3.9110    3.3830   -2.3420 O   0  0  0  0  0  0  0  0  0  0  0  0
   -4.8690    2.9490   -3.4120 C   0  0  0  0  0  1  0  0  0  0  0  0
  1 15  1  0  0  0  0
  1  3  1  0  0  0  0
  2  1  1  0  0  0  0
  3 12  2  0  0  0  0
  3  4  1  0  0  0  0
  4  5  2  0  0  0  0
  5  6  1  0  0  0  0
  7  8  1  0  0  0  0
  7  6  2  0  0  0  0
  9 27  1  0  0  0  0
  9  8  2  0  0  0  0
 10  9  1  0  0  0  0
 11 10  2  0  0  0  0
 11 12  1  0  0  0  0
 12  7  1  0  0  0  0
 13 18  1  0  0  0  0
 14 13  2  0  0  0  0
 14 15  1  0  0  0  0
 15 16  2  0  0  0  0
 16 17  1  0  0  0  0
 18 19  1  0  0  0  0
 18 17  2  0  0  0  0
 20 22  1  0  0  0  0
 21 20  2  0  0  0  0
 22 23  1  0  0  0  0
 22 13  1  0  0  0  0
 24 20  1  0  0  0  0
 26 24  1  0  0  0  0
 26 25  1  0  0  0  0
 28 27  1  0  0  0  0
 29 10  1  0  0  0  0
 30 29  1  0  0  0  0
M  END
>  <MODEL>
       3

>  <REMARK>
  Name = 
  6 active torsions:
  status: ('A' for Active; 'I' for Inactive)
    1  A    between atoms: N_1  and  C_19
    2  A    between atoms: C_9  and  O_13
    3  A    between atoms: C_10  and  O_15
    4  A    between atoms: C_17  and  N_26
    5  A    between atoms: C_24  and  O_28
    6  A    between atoms: O_28  and  C_30
                            x       y       z     vdW  Elec       q    Type
                         _______ _______ _______ _____ _____    ______ ____

>  <TORSDO>
F 6

$$$$
=
 OpenBabel03122313433D

 30 32  0  0  0  0  0  0  0  0999 V2000
    3.5500   -3.4790   -4.2630 N   0  0  0  0  0  0  0  0  0  0  0  0
    2.6270   -3.4270   -4.6020 H   0  0  0  0  0  0  0  0  0  0  0  0
    3.8600   -3.0420   -2.8620 C   0  0  0  0  0  0  0  0  0  0  0  0
    5.2050   -3.3360   -2.2660 N   0  0  0  0  0  0  0  0  0  0  0  0
    5.5160   -2.9000   -0.8650 C   0  0  0  0  0  3  0  0  0  0  0  0
    4.4810   -2.1700   -0.0600 N   0  0  0  0  0  0  0  0  0  0  0  0
    3.1370   -1.8760   -0.6560 C   0  0  0  0  0  0  0  0  0  0  0  0
    2.1030   -1.1460    0.1490 C   0  0  0  0  0  3  0  0  0  0  0  0
    0.7580   -0.8530   -0.4470 C   0  0  0  0  0  0  0  0  0  0  0  0
    0.4480   -1.2890   -1.8490 C   0  0  0  0  0  0  0  0  0  0  0  0
    1.4820   -2.0190   -2.6530 C   0  0  0  0  0  3  0  0  0  0  0  0
    2.8260   -2.3130   -2.0570 C   0  0  0  0  0  0  0  0  0  0  0  0
    6.1840   -3.7070   -7.2220 C   0  0  0  0  0  0  0  0  0  0  0  0
    5.0890   -3.1920   -6.3370 C   0  0  0  0  0  3  0  0  0  0  0  0
    4.6460   -3.9940   -5.1490 C   0  0  0  0  0  0  0  0  0  0  0  0
    5.2980   -5.3100   -4.8460 C   0  0  0  0  0  3  0  0  0  0  0  0
    6.3940   -5.8250   -5.7310 C   0  0  0  0  0  3  0  0  0  0  0  0
    6.8370   -5.0240   -6.9200 C   0  0  0  0  0  0  0  0  0  0  0  0
    7.9330   -5.5390   -7.8050 Cl  0  0  0  0  0  0  0  0  0  0  0  0
    6.8200   -1.4240   -8.2860 C   0  0  0  0  0  0  0  0  0  0  0  0
    6.5680   -0.7420   -6.9730 O   0  0  0  0  0  0  0  0  0  0  0  0
    6.6280   -2.9060   -8.4100 N   0  0  0  0  0  0  0  0  0  0  0  0
    6.7930   -3.3530   -9.2720 H   0  0  0  0  0  0  0  0  0  0  0  0
    7.2630   -0.6220   -9.4740 O   0  0  0  0  0  0  0  0  0  0  0  0
    6.9010    1.8970   -9.9930 C   0  0  0  0  0  1  0  0  0  0  0  0
    7.6700    0.8110   -9.3020 C   0  0  0  0  0  2  0  0  0  0  0  0
   -0.2760   -0.1220    0.3580 O   0  0  0  0  0  0  0  0  0  0  0  0
   -1.3160   -0.8920    1.1170 C   0  0  0  0  0  1  0  0  0  0  0  0
   -0.8970   -0.9950   -2.4450 O   0  0  0  0  0  0  0  0  0  0  0  0
   -1.4170    0.4120   -2.4650 C   0  0  0  0  0  1  0  0  0  0  0  0
  1  3  1  0  0  0  0
  2  1  1  0  0  0  0
  3  4  2  0  0  0  0
  3 12  1  0  0  0  0
  4  5  1  0  0  0  0
  5  6  2  0  0  0  0
  7  6  1  0  0  0  0
  7  8  1  0  0  0  0
  9  8  2  0  0  0  0
  9 27  1  0  0  0  0
 10  9  1  0  0  0  0
 11 12  1  0  0  0  0
 11 10  2  0  0  0  0
 12  7  2  0  0  0  0
 13 18  2  0  0  0  0
 13 14  1  0  0  0  0
 14 15  2  0  0  0  0
 15 16  1  0  0  0  0
 15  1  1  0  0  0  0
 17 16  2  0  0  0  0
 18 17  1  0  0  0  0
 19 18  1  0  0  0  0
 20 21  2  0  0  0  0
 22 20  1  0  0  0  0
 22 13  1  0  0  0  0
 23 22  1  0  0  0  0
 24 26  1  0  0  0  0
 24 20  1  0  0  0  0
 25 26  1  0  0  0  0
 27 28  1  0  0  0  0
 29 10  1  0  0  0  0
 30 29  1  0  0  0  0
M  END
>  <MODEL>
       4

>  <REMARK>
  Name = 
  6 active torsions:
  status: ('A' for Active; 'I' for Inactive)
    1  A    between atoms: N_1  and  C_19
    2  A    between atoms: C_9  and  O_13
    3  A    between atoms: C_10  and  O_15
    4  A    between atoms: C_17  and  N_26
    5  A    between atoms: C_24  and  O_28
    6  A    between atoms: O_28  and  C_30
                            x       y       z     vdW  Elec       q    Type
                         _______ _______ _______ _____ _____    ______ ____

>  <TORSDO>
F 6

$$$$
=
 OpenBabel03122313433D

 27 29  0  0  0  0  0  0  0  0999 V2000
   -3.9780    1.4580    2.6560 C   0  0  0  0  0  0  0  0  0  0  0  0
   -3.9620    2.3930    1.4830 C   0  0  0  0  0  3  0  0  0  0  0  0
   -3.2960    1.9810    0.2040 C   0  0  0  0  0  0  0  0  0  0  0  0
   -3.2810    2.9160   -0.9690 N   0  0  0  0  0  0  0  0  0  0  0  0
   -2.6150    2.5040   -2.2480 C   0  0  0  0  0  3  0  0  0  0  0  0
   -1.9640    1.1560   -2.3540 C   0  0  0  0  0  0  0  0  0  0  0  0
   -1.9800    0.2210   -1.1820 C   0  0  0  0  0  0  0  0  0  0  0  0
   -2.6460    0.6340    0.0980 C   0  0  0  0  0  0  0  0  0  0  0  0
   -2.6610   -0.3010    1.2700 C   0  0  0  0  0  3  0  0  0  0  0  0
   -3.3270    0.1110    2.5500 C   0  0  0  0  0  0  0  0  0  0  0  0
   -6.0160    2.4740    3.9060 C   0  0  0  0  0  1  0  0  0  0  0  0
   -4.6430    1.8710    3.9360 O   0  0  0  0  0  0  0  0  0  0  0  0
   -1.2990    0.7440   -3.6340 C   0  0  0  0  0  2  0  0  0  0  0  0
   -0.6330    0.3320   -4.9130 N   0  0  0  0  0  1  0  0  0  0  0  0
   -1.3290   -1.1260   -1.2880 N   0  0  0  0  0  0  0  0  0  0  0  0
   -1.8840   -1.9350   -1.3680 H   0  0  0  0  0  0  0  0  0  0  0  0
    0.1660   -1.2400   -1.2740 C   0  0  0  0  0  0  0  0  0  0  0  0
    0.9520   -0.6630   -0.1340 C   0  0  0  0  0  3  0  0  0  0  0  0
    2.4470   -0.7770   -0.1190 C   0  0  0  0  0  3  0  0  0  0  0  0
    3.1580   -1.4680   -1.2460 C   0  0  0  0  0  3  0  0  0  0  0  0
    2.3720   -2.0440   -2.3860 C   0  0  0  0  0  0  0  0  0  0  0  0
    0.8770   -1.9300   -2.4010 C   0  0  0  0  0  3  0  0  0  0  0  0
    3.0830   -2.7350   -3.5130 C   0  0  0  0  0  3  0  0  0  0  0  0
    2.5110   -2.6900   -4.8990 C   0  0  0  0  0  1  0  0  0  0  0  0
    4.3640   -3.4700   -3.2530 C   0  0  0  0  0  1  0  0  0  0  0  0
   -3.3420   -0.8240    3.7220 O   0  0  0  0  0  0  0  0  0  0  0  0
   -4.6480   -1.3250    4.2660 C   0  0  0  0  0  1  0  0  0  0  0  0
  1 12  1  0  0  0  0
  2  1  2  0  0  0  0
  3  2  1  0  0  0  0
  4  3  2  0  0  0  0
  5  4  1  0  0  0  0
  6  5  2  0  0  0  0
  6  7  1  0  0  0  0
  7  8  2  0  0  0  0
  8  3  1  0  0  0  0
  8  9  1  0  0  0  0
  9 10  2  0  0  0  0
 10  1  1  0  0  0  0
 10 26  1  0  0  0  0
 11 12  1  0  0  0  0
 13  6  1  0  0  0  0
 14 13  1  0  0  0  0
 15 17  1  0  0  0  0
 15  7  1  0  0  0  0
 16 15  1  0  0  0  0
 17 18  1  0  0  0  0
 18 19  2  0  0  0  0
 20 19  1  0  0  0  0
 21 20  2  0  0  0  0
 22 21  1  0  0  0  0
 22 17  2  0  0  0  0
 23 25  1  0  0  0  0
 23 21  1  0  0  0  0
 24 23  1  0  0  0  0
 26 27  1  0  0  0  0
M  END
>  <MODEL>
       2

>  <REMARK>
  Name = 
  6 active torsions:
  status: ('A' for Active; 'I' for Inactive)
    1  A    between atoms: C_1  and  O_12
    2  A    between atoms: C_6  and  C_13
    3  A    between atoms: C_7  and  N_15
    4  A    between atoms: C_10  and  O_26
    5  A    between atoms: N_15  and  C_17
    6  A    between atoms: C_21  and  C_23
                            x       y       z     vdW  Elec       q    Type
                         _______ _______ _______ _____ _____    ______ ____

>  <TORSDO>
F 6

$$$$
=
 OpenBabel03122313433D

 27 29  0  0  0  0  0  0  0  0999 V2000
   -7.4580    2.1340   -2.0080 C   0  0  0  0  0  0  0  0  0  0  0  0
   -8.3800    1.9120   -0.8460 C   0  0  0  0  0  3  0  0  0  0  0  0
   -7.8340    1.8910    0.5510 C   0  0  0  0  0  0  0  0  0  0  0  0
   -8.7550    1.6680    1.7140 N   0  0  0  0  0  0  0  0  0  0  0  0
   -8.2090    1.6470    3.1110 C   0  0  0  0  0  3  0  0  0  0  0  0
   -6.7420    1.8480    3.3450 C   0  0  0  0  0  0  0  0  0  0  0  0
   -5.8200    2.0710    2.1830 C   0  0  0  0  0  0  0  0  0  0  0  0
   -6.3660    2.0920    0.7860 C   0  0  0  0  0  0  0  0  0  0  0  0
   -5.4440    2.3140   -0.3760 C   0  0  0  0  0  3  0  0  0  0  0  0
   -5.9900    2.3350   -1.7730 C   0  0  0  0  0  0  0  0  0  0  0  0
   -9.2700    2.9010   -3.7040 C   0  0  0  0  0  1  0  0  0  0  0  0
   -8.0040    2.1550   -3.4050 O   0  0  0  0  0  0  0  0  0  0  0  0
   -6.1960    1.8270    4.7420 C   0  0  0  0  0  2  0  0  0  0  0  0
   -5.6490    1.8060    6.1390 N   0  0  0  0  0  1  0  0  0  0  0  0
   -4.3520    2.2720    2.4180 N   0  0  0  0  0  0  0  0  0  0  0  0
   -4.0070    3.1670    2.6410 H   0  0  0  0  0  0  0  0  0  0  0  0
   -3.4090    1.1100    2.3110 C   0  0  0  0  0  0  0  0  0  0  0  0
   -3.2970    0.1300    3.4410 C   0  0  0  0  0  3  0  0  0  0  0  0
   -2.3540   -1.0320    3.3350 C   0  0  0  0  0  3  0  0  0  0  0  0
   -1.5240   -1.2140    2.0990 C   0  0  0  0  0  3  0  0  0  0  0  0
   -1.6360   -0.2340    0.9690 C   0  0  0  0  0  0  0  0  0  0  0  0
   -2.5790    0.9280    1.0750 C   0  0  0  0  0  3  0  0  0  0  0  0
   -0.8060   -0.4150   -0.2670 C   0  0  0  0  0  3  0  0  0  0  0  0
    0.6090   -0.9010   -0.1550 C   0  0  0  0  0  1  0  0  0  0  0  0
   -1.3900   -0.1110   -1.6140 C   0  0  0  0  0  1  0  0  0  0  0  0
   -5.0680    2.5580   -2.9360 O   0  0  0  0  0  0  0  0  0  0  0  0
   -3.6180    2.8560   -2.6960 C   0  0  0  0  0  1  0  0  0  0  0  0
  1 10  2  0  0  0  0
  1  2  1  0  0  0  0
  2  3  2  0  0  0  0
  3  8  1  0  0  0  0
  3  4  1  0  0  0  0
  4  5  2  0  0  0  0
  5  6  1  0  0  0  0
  6 13  1  0  0  0  0
  7 15  1  0  0  0  0
  7  6  2  0  0  0  0
  8  7  1  0  0  0  0
  9  8  2  0  0  0  0
 10  9  1  0  0  0  0
 11 12  1  0  0  0  0
 12  1  1  0  0  0  0
 13 14  1  0  0  0  0
 15 16  1  0  0  0  0
 17 15  1  0  0  0  0
 17 18  1  0  0  0  0
 19 18  2  0  0  0  0
 20 19  1  0  0  0  0
 21 22  1  0  0  0  0
 21 20  2  0  0  0  0
 22 17  2  0  0  0  0
 23 24  1  0  0  0  0
 23 21  1  0  0  0  0
 25 23  1  0  0  0  0
 26 27  1  0  0  0  0
 26 10  1  0  0  0  0
M  END
>  <MODEL>
       3

>  <REMARK>
  Name = 
  6 active torsions:
  status: ('A' for Active; 'I' for Inactive)
    1  A    between atoms: C_1  and  O_12
    2  A    between atoms: C_6  and  C_13
    3  A    between atoms: C_7  and  N_15
    4  A    between atoms: C_10  and  O_26
    5  A    between atoms: N_15  and  C_17
    6  A    between atoms: C_21  and  C_23
                            x       y       z     vdW  Elec       q    Type
                         _______ _______ _______ _____ _____    ______ ____

>  <TORSDO>
F 6

$$$$
=
 OpenBabel03122313433D

 27 29  0  0  0  0  0  0  0  0999 V2000
   -5.6870    1.2410    5.2340 C   0  0  0  0  0  0  0  0  0  0  0  0
   -4.9060   -0.0240    5.0280 C   0  0  0  0  0  3  0  0  0  0  0  0
   -3.9210   -0.1210    3.9010 C   0  0  0  0  0  0  0  0  0  0  0  0
   -3.1400   -1.3850    3.6950 N   0  0  0  0  0  0  0  0  0  0  0  0
   -2.1550   -1.4830    2.5680 C   0  0  0  0  0  3  0  0  0  0  0  0
   -1.9500   -0.3160    1.6480 C   0  0  0  0  0  0  0  0  0  0  0  0
   -2.7300    0.9480    1.8540 C   0  0  0  0  0  0  0  0  0  0  0  0
   -3.7160    1.0460    2.9810 C   0  0  0  0  0  0  0  0  0  0  0  0
   -4.4960    2.3100    3.1870 C   0  0  0  0  0  3  0  0  0  0  0  0
   -5.4810    2.4070    4.3140 C   0  0  0  0  0  0  0  0  0  0  0  0
   -6.2150    1.7710    7.7220 C   0  0  0  0  0  1  0  0  0  0  0  0
   -6.6720    1.3380    6.3610 O   0  0  0  0  0  0  0  0  0  0  0  0
   -0.9640   -0.4140    0.5210 C   0  0  0  0  0  2  0  0  0  0  0  0
    0.0210   -0.5120   -0.6050 N   0  0  0  0  0  1  0  0  0  0  0  0
   -2.5250    2.1150    0.9340 N   0  0  0  0  0  0  0  0  0  0  0  0
   -1.8440    2.7930    1.1440 H   0  0  0  0  0  0  0  0  0  0  0  0
   -3.3570    2.2470   -0.3070 C   0  0  0  0  0  0  0  0  0  0  0  0
   -2.6950    2.3080   -1.6510 C   0  0  0  0  0  3  0  0  0  0  0  0
   -3.5280    2.4410   -2.8920 C   0  0  0  0  0  3  0  0  0  0  0  0
   -5.0230    2.5110   -2.7880 C   0  0  0  0  0  3  0  0  0  0  0  0
   -5.6850    2.4490   -1.4440 C   0  0  0  0  0  0  0  0  0  0  0  0
   -4.8520    2.3170   -0.2030 C   0  0  0  0  0  3  0  0  0  0  0  0
   -7.1790    2.5200   -1.3400 C   0  0  0  0  0  3  0  0  0  0  0  0
   -7.8210    3.0080   -0.0750 C   0  0  0  0  0  1  0  0  0  0  0  0
   -8.0330    2.1010   -2.5000 C   0  0  0  0  0  1  0  0  0  0  0  0
   -6.2620    3.6720    4.5200 O   0  0  0  0  0  0  0  0  0  0  0  0
   -6.5730    4.5600    3.3520 C   0  0  0  0  0  1  0  0  0  0  0  0
  1 12  1  0  0  0  0
  2  1  1  0  0  0  0
  3  2  2  0  0  0  0
  4  3  1  0  0  0  0
  5  4  2  0  0  0  0
  6  7  2  0  0  0  0
  6  5  1  0  0  0  0
  7  8  1  0  0  0  0
  8  9  2  0  0  0  0
  8  3  1  0  0  0  0
  9 10  1  0  0  0  0
 10 26  1  0  0  0  0
 10  1  2  0  0  0  0
 12 11  1  0  0  0  0
 13  6  1  0  0  0  0
 14 13  1  0  0  0  0
 15 16  1  0  0  0  0
 15  7  1  0  0  0  0
 17 22  1  0  0  0  0
 17 15  1  0  0  0  0
 18 17  2  0  0  0  0
 19 20  2  0  0  0  0
 19 18  1  0  0  0  0
 20 21  1  0  0  0  0
 21 23  1  0  0  0  0
 21 22  2  0  0  0  0
 23 24  1  0  0  0  0
 25 23  1  0  0  0  0
 27 26  1  0  0  0  0
M  END
>  <MODEL>
       4

>  <REMARK>
  Name = 
  6 active torsions:
  status: ('A' for Active; 'I' for Inactive)
    1  A    between atoms: C_1  and  O_12
    2  A    between atoms: C_6  and  C_13
    3  A    between atoms: C_7  and  N_15
    4  A    between atoms: C_10  and  O_26
    5  A    between atoms: N_15  and  C_17
    6  A    between atoms: C_21  and  C_23
                            x       y       z     vdW  Elec       q    Type
                         _______ _______ _______ _____ _____    ______ ____

>  <TORSDO>
F 6

$$$$
=
 OpenBabel03122313433D

 23 24  0  0  0  0  0  0  0  0999 V2000
    1.3320   -1.2260   -0.8270 C   0  0  0  0  0  0  0  0  0  0  0  0
    2.4760   -0.2590   -0.7420 O   0  0  0  0  0  0  0  0  0  0  0  0
    1.3920   -2.3740   -1.7900 N   0  0  0  0  0  0  0  0  0  0  0  0
    0.6410   -3.0090   -1.8460 H   0  0  0  0  0  0  0  0  0  0  0  0
    2.5950   -2.5560   -2.6670 S   0  0  0  0  0  0  0  0  0  0  0  0
    3.3340   -3.1840   -1.5230 O   0  0  0  0  0  0  0  0  0  0  0  0
    1.8550   -1.9290   -3.8120 O   0  0  0  0  0  0  0  0  0  0  0  0
    3.7980   -2.7380   -3.5450 C   0  0  0  0  0  0  0  0  0  0  0  0
    3.7330   -2.3580   -4.9940 C   0  0  0  0  0  3  0  0  0  0  0  0
    4.9360   -2.5400   -5.8710 C   0  0  0  0  0  3  0  0  0  0  0  0
    6.2040   -3.1020   -5.2990 C   0  0  0  0  0  0  0  0  0  0  0  0
    7.4070   -3.2840   -6.1760 C   0  0  0  0  0  1  0  0  0  0  0  0
    6.2680   -3.4830   -3.8500 C   0  0  0  0  0  3  0  0  0  0  0  0
    5.0650   -3.3010   -2.9720 C   0  0  0  0  0  3  0  0  0  0  0  0
    0.1290   -1.0440    0.0500 C   0  0  0  0  0  2  0  0  0  0  0  0
   -3.0340    1.9560   -1.0640 C   0  0  0  0  0  0  0  0  0  0  0  0
   -2.6950    1.7250    0.3790 C   0  0  0  0  0  3  0  0  0  0  0  0
   -1.6410    0.7250    0.7500 C   0  0  0  0  0  3  0  0  0  0  0  0
   -0.9250   -0.0430   -0.3210 C   0  0  0  0  0  0  0  0  0  0  0  0
   -1.2640    0.1880   -1.7640 C   0  0  0  0  0  3  0  0  0  0  0  0
   -2.3190    1.1880   -2.1350 C   0  0  0  0  0  3  0  0  0  0  0  0
   -5.5070    2.7500   -0.9930 C   0  0  0  0  0  1  0  0  0  0  0  0
   -4.0890    2.9560   -1.4350 O   0  0  0  0  0  0  0  0  0  0  0  0
  1  2  2  0  0  0  0
  1 15  1  0  0  0  0
  3  1  1  0  0  0  0
  4  3  1  0  0  0  0
  5  3  1  0  0  0  0
  5  6  2  0  0  0  0
  7  5  2  0  0  0  0
  8 14  1  0  0  0  0
  8  5  1  0  0  0  0
  9  8  2  0  0  0  0
 10 11  2  0  0  0  0
 10  9  1  0  0  0  0
 11 13  1  0  0  0  0
 12 11  1  0  0  0  0
 13 14  2  0  0  0  0
 16 17  1  0  0  0  0
 17 18  2  0  0  0  0
 19 15  1  0  0  0  0
 19 18  1  0  0  0  0
 20 19  2  0  0  0  0
 21 20  1  0  0  0  0
 21 16  2  0  0  0  0
 23 16  1  0  0  0  0
 23 22  1  0  0  0  0
M  END
>  <MODEL>
       2

>  <REMARK>
  Name = 
  5 active torsions:
  status: ('A' for Active; 'I' for Inactive)
    1  A    between atoms: C_1  and  C_15
    2  A    between atoms: N_3  and  S_5
    3  A    between atoms: S_5  and  C_8
    4  A    between atoms: C_15  and  C_19
    5  A    between atoms: C_16  and  O_23
                            x       y       z     vdW  Elec       q    Type
                         _______ _______ _______ _____ _____    ______ ____

>  <TORSDO>
F 5

$$$$
=
 OpenBabel03122313433D

 23 24  0  0  0  0  0  0  0  0999 V2000
    1.3340   -1.2280   -0.8170 C   0  0  0  0  0  0  0  0  0  0  0  0
    2.4750   -0.2580   -0.7380 O   0  0  0  0  0  0  0  0  0  0  0  0
    1.3930   -2.3800   -1.7760 N   0  0  0  0  0  0  0  0  0  0  0  0
    0.6440   -3.0160   -1.8280 H   0  0  0  0  0  0  0  0  0  0  0  0
    2.5940   -2.5600   -2.6570 S   0  0  0  0  0  0  0  0  0  0  0  0
    1.8450   -1.9510   -3.8040 O   0  0  0  0  0  0  0  0  0  0  0  0
    3.3440   -3.1700   -1.5090 O   0  0  0  0  0  0  0  0  0  0  0  0
    3.7950   -2.7410   -3.5370 C   0  0  0  0  0  0  0  0  0  0  0  0
    5.0690   -3.2880   -2.9650 C   0  0  0  0  0  3  0  0  0  0  0  0
    6.2700   -3.4690   -3.8450 C   0  0  0  0  0  3  0  0  0  0  0  0
    6.1970   -3.1030   -5.2980 C   0  0  0  0  0  0  0  0  0  0  0  0
    7.3980   -3.2830   -6.1790 C   0  0  0  0  0  1  0  0  0  0  0  0
    4.9230   -2.5560   -5.8710 C   0  0  0  0  0  3  0  0  0  0  0  0
    3.7220   -2.3750   -4.9900 C   0  0  0  0  0  3  0  0  0  0  0  0
    0.1330   -1.0470    0.0640 C   0  0  0  0  0  2  0  0  0  0  0  0
   -3.0460    1.9360   -1.0510 C   0  0  0  0  0  0  0  0  0  0  0  0
   -2.3120    1.1860   -2.1230 C   0  0  0  0  0  3  0  0  0  0  0  0
   -1.2530    0.1920   -1.7510 C   0  0  0  0  0  3  0  0  0  0  0  0
   -0.9270   -0.0530   -0.3080 C   0  0  0  0  0  0  0  0  0  0  0  0
   -1.6610    0.6970    0.7640 C   0  0  0  0  0  3  0  0  0  0  0  0
   -2.7200    1.6920    0.3930 C   0  0  0  0  0  3  0  0  0  0  0  0
   -5.5100    2.7520   -0.9260 C   0  0  0  0  0  1  0  0  0  0  0  0
   -4.1060    2.9310   -1.4220 O   0  0  0  0  0  0  0  0  0  0  0  0
  1  2  2  0  0  0  0
  1 15  1  0  0  0  0
  3  1  1  0  0  0  0
  4  3  1  0  0  0  0
  5  3  1  0  0  0  0
  5  7  2  0  0  0  0
  6  5  2  0  0  0  0
  8  9  1  0  0  0  0
  8  5  1  0  0  0  0
 10  9  2  0  0  0  0
 11 10  1  0  0  0  0
 12 11  1  0  0  0  0
 13 11  2  0  0  0  0
 13 14  1  0  0  0  0
 14  8  2  0  0  0  0
 16 21  1  0  0  0  0
 17 18  1  0  0  0  0
 17 16  2  0  0  0  0
 18 19  2  0  0  0  0
 19 15  1  0  0  0  0
 19 20  1  0  0  0  0
 21 20  2  0  0  0  0
 23 16  1  0  0  0  0
 23 22  1  0  0  0  0
M  END
>  <MODEL>
       3

>  <REMARK>
  Name = 
  5 active torsions:
  status: ('A' for Active; 'I' for Inactive)
    1  A    between atoms: C_1  and  C_15
    2  A    between atoms: N_3  and  S_5
    3  A    between atoms: S_5  and  C_8
    4  A    between atoms: C_15  and  C_19
    5  A    between atoms: C_16  and  O_23
                            x       y       z     vdW  Elec       q    Type
                         _______ _______ _______ _____ _____    ______ ____

>  <TORSDO>
F 5

$$$$
=
 OpenBabel03122313433D

 23 24  0  0  0  0  0  0  0  0999 V2000
    3.2620   -2.5190   -2.1890 C   0  0  0  0  0  0  0  0  0  0  0  0
    3.6170   -1.7280   -0.9660 O   0  0  0  0  0  0  0  0  0  0  0  0
    1.8640   -2.4750   -2.7310 N   0  0  0  0  0  0  0  0  0  0  0  0
    1.6300   -2.9940   -3.5340 H   0  0  0  0  0  0  0  0  0  0  0  0
    0.8210   -1.6390   -2.0490 S   0  0  0  0  0  0  0  0  0  0  0  0
    0.3440   -2.8470   -1.2980 O   0  0  0  0  0  0  0  0  0  0  0  0
    1.2980   -0.4310   -2.8000 O   0  0  0  0  0  0  0  0  0  0  0  0
   -0.2210   -0.8030   -1.3680 C   0  0  0  0  0  0  0  0  0  0  0  0
   -0.4050   -0.8980    0.1180 C   0  0  0  0  0  3  0  0  0  0  0  0
   -1.4480   -0.0630    0.8000 C   0  0  0  0  0  3  0  0  0  0  0  0
   -2.3060    0.8690   -0.0040 C   0  0  0  0  0  0  0  0  0  0  0  0
   -3.3480    1.7040    0.6770 C   0  0  0  0  0  1  0  0  0  0  0  0
   -2.1220    0.9640   -1.4900 C   0  0  0  0  0  3  0  0  0  0  0  0
   -1.0790    0.1280   -2.1720 C   0  0  0  0  0  3  0  0  0  0  0  0
    4.3040   -3.3550   -2.8710 C   0  0  0  0  0  2  0  0  0  0  0  0
    5.9780   -2.0650   -6.8440 C   0  0  0  0  0  0  0  0  0  0  0  0
    6.7940   -2.9330   -5.9330 C   0  0  0  0  0  3  0  0  0  0  0  0
    6.2360   -3.3630   -4.6080 C   0  0  0  0  0  3  0  0  0  0  0  0
    4.8620   -2.9250   -4.1950 C   0  0  0  0  0  0  0  0  0  0  0  0
    4.0460   -2.0570   -5.1060 C   0  0  0  0  0  3  0  0  0  0  0  0
    4.6040   -1.6270   -6.4310 C   0  0  0  0  0  3  0  0  0  0  0  0
    6.4350   -0.2000   -8.5950 C   0  0  0  0  0  1  0  0  0  0  0  0
    6.5360   -1.6350   -8.1680 O   0  0  0  0  0  0  0  0  0  0  0  0
  1  2  2  0  0  0  0
  3  1  1  0  0  0  0
  3  5  1  0  0  0  0
  4  3  1  0  0  0  0
  5  8  1  0  0  0  0
  5  6  2  0  0  0  0
  7  5  2  0  0  0  0
  8  9  1  0  0  0  0
  9 10  2  0  0  0  0
 11 12  1  0  0  0  0
 11 10  1  0  0  0  0
 13 11  2  0  0  0  0
 14 13  1  0  0  0  0
 14  8  2  0  0  0  0
 15  1  1  0  0  0  0
 16 21  2  0  0  0  0
 16 17  1  0  0  0  0
 17 18  2  0  0  0  0
 18 19  1  0  0  0  0
 19 15  1  0  0  0  0
 20 19  2  0  0  0  0
 21 20  1  0  0  0  0
 22 23  1  0  0  0  0
 23 16  1  0  0  0  0
M  END
>  <MODEL>
       4

>  <REMARK>
  Name = 
  5 active torsions:
  status: ('A' for Active; 'I' for Inactive)
    1  A    between atoms: C_1  and  C_15
    2  A    between atoms: N_3  and  S_5
    3  A    between atoms: S_5  and  C_8
    4  A    between atoms: C_15  and  C_19
    5  A    between atoms: C_16  and  O_23
                            x       y       z     vdW  Elec       q    Type
                         _______ _______ _______ _____ _____    ______ ____

>  <TORSDO>
F 5

$$$$
=
 OpenBabel03122313433D

 19 20  0  0  0  0  0  0  0  0999 V2000
    3.9280   -3.1040   -4.0480 N   0  0  0  0  0  0  0  0  0  0  0  0
    4.0490   -2.7880   -2.5870 C   0  0  0  0  0  0  0  0  0  0  0  0
    5.3640   -2.9670   -1.8870 O   0  0  0  0  0  0  0  0  0  0  0  0
    3.0650   -2.9870   -4.5070 H   0  0  0  0  0  0  0  0  0  0  0  0
    8.7040   -5.0790   -7.0950 Cl  0  0  0  0  0  0  0  0  0  0  0  0
    7.5100   -4.5850   -6.3330 C   0  0  0  0  0  0  0  0  0  0  0  0
    6.5780   -5.5640   -5.6840 C   0  0  0  0  0  3  0  0  0  0  0  0
    5.3840   -5.0710   -4.9220 C   0  0  0  0  0  3  0  0  0  0  0  0
    5.1220   -3.5980   -4.8100 C   0  0  0  0  0  0  0  0  0  0  0  0
    6.0550   -2.6190   -5.4590 C   0  0  0  0  0  3  0  0  0  0  0  0
    7.2490   -3.1130   -6.2210 C   0  0  0  0  0  3  0  0  0  0  0  0
    2.8550   -2.2950   -1.8250 C   0  0  0  0  0  3  0  0  0  0  0  0
    1.8230   -1.4500   -2.5120 C   0  0  0  0  0  3  0  0  0  0  0  0
    0.6290   -0.9570   -1.7500 C   0  0  0  0  0  0  0  0  0  0  0  0
    0.5390   -1.1800   -0.2700 C   0  0  0  0  0  3  0  0  0  0  0  0
   -0.6550   -0.6860    0.4920 C   0  0  0  0  0  3  0  0  0  0  0  0
   -1.7590    0.0310   -0.2270 C   0  0  0  0  0  3  0  0  0  0  0  0
   -1.6690    0.2550   -1.7070 C   0  0  0  0  0  3  0  0  0  0  0  0
   -0.4750   -0.2390   -2.4690 C   0  0  0  0  0  3  0  0  0  0  0  0
  1  2  1  0  0  0  0
  2  3  2  0  0  0  0
  2 12  1  0  0  0  0
  4  1  1  0  0  0  0
  5  6  1  0  0  0  0
  6 11  2  0  0  0  0
  6  7  1  0  0  0  0
  7  8  2  0  0  0  0
  8  9  1  0  0  0  0
  9  1  1  0  0  0  0
 10  9  2  0  0  0  0
 11 10  1  0  0  0  0
 13 12  2  0  0  0  0
 13 14  1  0  0  0  0
 14 15  1  0  0  0  0
 15 16  2  0  0  0  0
 17 16  1  0  0  0  0
 18 17  2  0  0  0  0
 19 14  2  0  0  0  0
 19 18  1  0  0  0  0
M  END
>  <MODEL>
       2

>  <REMARK>
  Name = 
  3 active torsions:
  status: ('A' for Active; 'I' for Inactive)
    1  A    between atoms: N_1  and  C_9
    2  A    between atoms: C_2  and  C_12
    3  A    between atoms: C_13  and  C_14
                            x       y       z     vdW  Elec       q    Type
                         _______ _______ _______ _____ _____    ______ ____

>  <TORSDO>
F 3

$$$$
=
 OpenBabel03122313433D

 19 20  0  0  0  0  0  0  0  0999 V2000
    3.9360   -3.0790   -4.0580 N   0  0  0  0  0  0  0  0  0  0  0  0
    4.0430   -2.7850   -2.5910 C   0  0  0  0  0  0  0  0  0  0  0  0
    5.3460   -2.9900   -1.8780 O   0  0  0  0  0  0  0  0  0  0  0  0
    3.0800   -2.9450   -4.5260 H   0  0  0  0  0  0  0  0  0  0  0  0
    8.7240   -5.0730   -7.0740 Cl  0  0  0  0  0  0  0  0  0  0  0  0
    7.5270   -4.5750   -6.3200 C   0  0  0  0  0  0  0  0  0  0  0  0
    7.2670   -3.1010   -6.2150 C   0  0  0  0  0  3  0  0  0  0  0  0
    6.0700   -2.6030   -5.4610 C   0  0  0  0  0  3  0  0  0  0  0  0
    5.1330   -3.5780   -4.8120 C   0  0  0  0  0  0  0  0  0  0  0  0
    5.3930   -5.0510   -4.9170 C   0  0  0  0  0  3  0  0  0  0  0  0
    6.5900   -5.5500   -5.6710 C   0  0  0  0  0  3  0  0  0  0  0  0
    2.8450   -2.2870   -1.8370 C   0  0  0  0  0  3  0  0  0  0  0  0
    1.8350   -1.4160   -2.5240 C   0  0  0  0  0  3  0  0  0  0  0  0
    0.6380   -0.9180   -1.7700 C   0  0  0  0  0  0  0  0  0  0  0  0
   -0.4730   -0.2250   -2.5000 C   0  0  0  0  0  3  0  0  0  0  0  0
   -1.6700    0.2740   -1.7460 C   0  0  0  0  0  3  0  0  0  0  0  0
   -1.7560    0.0790   -0.2620 C   0  0  0  0  0  3  0  0  0  0  0  0
   -0.6440   -0.6150    0.4690 C   0  0  0  0  0  3  0  0  0  0  0  0
    0.5530   -1.1130   -0.2850 C   0  0  0  0  0  3  0  0  0  0  0  0
  1  2  1  0  0  0  0
  2  3  2  0  0  0  0
  2 12  1  0  0  0  0
  4  1  1  0  0  0  0
  5  6  1  0  0  0  0
  6  7  2  0  0  0  0
  6 11  1  0  0  0  0
  7  8  1  0  0  0  0
  8  9  2  0  0  0  0
  9  1  1  0  0  0  0
 10  9  1  0  0  0  0
 11 10  2  0  0  0  0
 13 12  2  0  0  0  0
 13 14  1  0  0  0  0
 14 19  1  0  0  0  0
 15 14  2  0  0  0  0
 15 16  1  0  0  0  0
 16 17  2  0  0  0  0
 17 18  1  0  0  0  0
 19 18  2  0  0  0  0
M  END
>  <MODEL>
       3

>  <REMARK>
  Name = 
  3 active torsions:
  status: ('A' for Active; 'I' for Inactive)
    1  A    between atoms: N_1  and  C_9
    2  A    between atoms: C_2  and  C_12
    3  A    between atoms: C_13  and  C_14
                            x       y       z     vdW  Elec       q    Type
                         _______ _______ _______ _____ _____    ______ ____

>  <TORSDO>
F 3

$$$$
=
 OpenBabel03122313433D

 19 20  0  0  0  0  0  0  0  0999 V2000
    2.1980   -2.7840   -2.5280 N   0  0  0  0  0  0  0  0  0  0  0  0
    2.4860   -2.3580   -3.9370 C   0  0  0  0  0  0  0  0  0  0  0  0
    1.8150   -1.1430   -4.5060 O   0  0  0  0  0  0  0  0  0  0  0  0
    2.6390   -3.5810   -2.1550 H   0  0  0  0  0  0  0  0  0  0  0  0
   -1.6400    0.3730    0.8340 Cl  0  0  0  0  0  0  0  0  0  0  0  0
   -0.6800   -0.4160   -0.0060 C   0  0  0  0  0  0  0  0  0  0  0  0
   -1.1860   -1.5210   -0.8840 C   0  0  0  0  0  3  0  0  0  0  0  0
   -0.2270   -2.3110   -1.7250 C   0  0  0  0  0  3  0  0  0  0  0  0
    1.2390   -1.9940   -1.6870 C   0  0  0  0  0  0  0  0  0  0  0  0
    1.7450   -0.8890   -0.8090 C   0  0  0  0  0  3  0  0  0  0  0  0
    0.7860   -0.1000    0.0320 C   0  0  0  0  0  3  0  0  0  0  0  0
    3.4460   -3.1470   -4.7780 C   0  0  0  0  0  3  0  0  0  0  0  0
    4.8680   -3.3170   -4.3320 C   0  0  0  0  0  3  0  0  0  0  0  0
    5.8280   -4.1070   -5.1730 C   0  0  0  0  0  0  0  0  0  0  0  0
    5.4660   -5.4900   -5.6260 C   0  0  0  0  0  3  0  0  0  0  0  0
    6.4250   -6.2790   -6.4660 C   0  0  0  0  0  3  0  0  0  0  0  0
    7.7470   -5.6850   -6.8540 C   0  0  0  0  0  3  0  0  0  0  0  0
    8.1090   -4.3020   -6.4010 C   0  0  0  0  0  3  0  0  0  0  0  0
    7.1490   -3.5130   -5.5610 C   0  0  0  0  0  3  0  0  0  0  0  0
  1  4  1  0  0  0  0
  1  9  1  0  0  0  0
  2  1  1  0  0  0  0
  3  2  2  0  0  0  0
  6 11  1  0  0  0  0
  6  5  1  0  0  0  0
  7  6  2  0  0  0  0
  8  9  2  0  0  0  0
  8  7  1  0  0  0  0
  9 10  1  0  0  0  0
 10 11  2  0  0  0  0
 12 13  2  0  0  0  0
 12  2  1  0  0  0  0
 14 13  1  0  0  0  0
 15 14  2  0  0  0  0
 16 15  1  0  0  0  0
 17 16  2  0  0  0  0
 17 18  1  0  0  0  0
 18 19  2  0  0  0  0
 19 14  1  0  0  0  0
M  END
>  <MODEL>
       4

>  <REMARK>
  Name = 
  3 active torsions:
  status: ('A' for Active; 'I' for Inactive)
    1  A    between atoms: N_1  and  C_9
    2  A    between atoms: C_2  and  C_12
    3  A    between atoms: C_13  and  C_14
                            x       y       z     vdW  Elec       q    Type
                         _______ _______ _______ _____ _____    ______ ____

>  <TORSDO>
F 3

$$$$
=
 OpenBabel03122313433D

 18 19  0  0  0  0  0  0  0  0999 V2000
    6.2570   -1.3380   -7.1730 C   0  0  0  0  0  0  0  0  0  0  0  0
    6.6750   -2.6840   -7.6860 C   0  0  0  0  0  3  0  0  0  0  0  0
    6.0480   -3.9270   -7.1270 C   0  0  0  0  0  0  0  0  0  0  0  0
    5.0030   -3.8240   -6.0560 C   0  0  0  0  0  3  0  0  0  0  0  0
    4.5850   -2.4770   -5.5430 C   0  0  0  0  0  0  0  0  0  0  0  0
    5.2120   -1.2340   -6.1020 C   0  0  0  0  0  3  0  0  0  0  0  0
    3.5400   -2.3740   -4.4720 C   0  0  0  0  0  2  0  0  0  0  0  0
    3.9120   -2.6050   -3.0370 C   0  0  0  0  0  0  0  0  0  0  0  0
    5.3280   -2.9390   -2.6740 C   0  0  0  0  0  3  0  0  0  0  0  0
    5.6990   -3.1700   -1.2390 C   0  0  0  0  0  3  0  0  0  0  0  0
    4.6540   -3.0670   -0.1680 C   0  0  0  0  0  3  0  0  0  0  0  0
    3.2380   -2.7320   -0.5310 C   0  0  0  0  0  3  0  0  0  0  0  0
    2.8670   -2.5020   -1.9660 C   0  0  0  0  0  0  0  0  0  0  0  0
    1.4500   -2.1670   -2.3300 O   0  0  0  0  0  1  0  0  0  0  0  0
    6.7130    0.2450   -9.1820 C   0  0  0  0  0  1  0  0  0  0  0  0
    6.8850   -0.0950   -7.7310 O   0  0  0  0  0  0  0  0  0  0  0  0
    6.4660   -5.2730   -7.6400 O   0  0  0  0  0  0  0  0  0  0  0  0
    7.8060   -5.8340   -7.2690 C   0  0  0  0  0  1  0  0  0  0  0  0
  1  6  1  0  0  0  0
  2  1  2  0  0  0  0
  2  3  1  0  0  0  0
  3  4  2  0  0  0  0
  4  5  1  0  0  0  0
  5  7  1  0  0  0  0
  6  5  2  0  0  0  0
  7  8  1  0  0  0  0
  8  9  2  0  0  0  0
  8 13  1  0  0  0  0
  9 10  1  0  0  0  0
 10 11  2  0  0  0  0
 12 11  1  0  0  0  0
 13 12  2  0  0  0  0
 14 13  1  0  0  0  0
 15 16  1  0  0  0  0
 16  1  1  0  0  0  0
 17 18  1  0  0  0  0
 17  3  1  0  0  0  0
M  END
>  <MODEL>
       2

>  <REMARK>
  Name = 
  3 active torsions:
  status: ('A' for Active; 'I' for Inactive)
    1  A    between atoms: C_1  and  O_16
    2  A    between atoms: C_3  and  O_17
    3  A    between atoms: C_5  and  C_7
                            x       y       z     vdW  Elec       q    Type
                         _______ _______ _______ _____ _____    ______ ____

>  <TORSDO>
F 3

$$$$
=
 OpenBabel03122313433D

 18 19  0  0  0  0  0  0  0  0999 V2000
    6.0640   -3.8990   -7.1740 C   0  0  0  0  0  0  0  0  0  0  0  0
    6.6910   -2.6510   -7.7210 C   0  0  0  0  0  3  0  0  0  0  0  0
    6.2690   -1.3100   -7.1980 C   0  0  0  0  0  0  0  0  0  0  0  0
    5.2220   -1.2160   -6.1280 C   0  0  0  0  0  3  0  0  0  0  0  0
    4.5960   -2.4650   -5.5810 C   0  0  0  0  0  0  0  0  0  0  0  0
    5.0170   -3.8060   -6.1040 C   0  0  0  0  0  3  0  0  0  0  0  0
    3.5480   -2.3720   -4.5120 C   0  0  0  0  0  2  0  0  0  0  0  0
    3.9180   -2.6080   -3.0770 C   0  0  0  0  0  0  0  0  0  0  0  0
    5.3350   -2.9370   -2.7130 C   0  0  0  0  0  3  0  0  0  0  0  0
    5.7050   -3.1730   -1.2780 C   0  0  0  0  0  3  0  0  0  0  0  0
    4.6580   -3.0800   -0.2080 C   0  0  0  0  0  3  0  0  0  0  0  0
    3.2410   -2.7510   -0.5730 C   0  0  0  0  0  3  0  0  0  0  0  0
    2.8710   -2.5150   -2.0070 C   0  0  0  0  0  0  0  0  0  0  0  0
    1.4540   -2.1860   -2.3720 O   0  0  0  0  0  1  0  0  0  0  0  0
    7.8180   -5.8110   -7.3110 C   0  0  0  0  0  1  0  0  0  0  0  0
    6.4860   -5.2410   -7.6960 O   0  0  0  0  0  0  0  0  0  0  0  0
    6.8960   -0.0610   -7.7450 O   0  0  0  0  0  0  0  0  0  0  0  0
    6.7730    0.2620   -9.2050 C   0  0  0  0  0  1  0  0  0  0  0  0
  1  6  1  0  0  0  0
  2  3  1  0  0  0  0
  2  1  2  0  0  0  0
  3  4  2  0  0  0  0
  4  5  1  0  0  0  0
  5  7  1  0  0  0  0
  6  5  2  0  0  0  0
  7  8  1  0  0  0  0
  8  9  2  0  0  0  0
  8 13  1  0  0  0  0
  9 10  1  0  0  0  0
 10 11  2  0  0  0  0
 12 11  1  0  0  0  0
 13 12  2  0  0  0  0
 14 13  1  0  0  0  0
 16 15  1  0  0  0  0
 16  1  1  0  0  0  0
 17  3  1  0  0  0  0
 18 17  1  0  0  0  0
M  END
>  <MODEL>
       3

>  <REMARK>
  Name = 
  3 active torsions:
  status: ('A' for Active; 'I' for Inactive)
    1  A    between atoms: C_1  and  O_16
    2  A    between atoms: C_3  and  O_17
    3  A    between atoms: C_5  and  C_7
                            x       y       z     vdW  Elec       q    Type
                         _______ _______ _______ _____ _____    ______ ____

>  <TORSDO>
F 3

$$$$
=
 OpenBabel03122313433D

 18 19  0  0  0  0  0  0  0  0999 V2000
    6.4170   -4.1150   -6.8770 C   0  0  0  0  0  0  0  0  0  0  0  0
    6.5480   -2.8100   -7.6050 C   0  0  0  0  0  3  0  0  0  0  0  0
    6.3940   -1.5170   -6.8600 C   0  0  0  0  0  0  0  0  0  0  0  0
    6.1090   -1.5290   -5.3870 C   0  0  0  0  0  3  0  0  0  0  0  0
    5.9780   -2.8340   -4.6600 C   0  0  0  0  0  0  0  0  0  0  0  0
    6.1320   -4.1270   -5.4050 C   0  0  0  0  0  3  0  0  0  0  0  0
    5.6930   -2.8460   -3.1870 C   0  0  0  0  0  2  0  0  0  0  0  0
    4.2990   -2.5990   -2.6910 C   0  0  0  0  0  0  0  0  0  0  0  0
    3.1900   -2.3400   -3.6670 C   0  0  0  0  0  3  0  0  0  0  0  0
    1.7960   -2.0930   -3.1710 C   0  0  0  0  0  3  0  0  0  0  0  0
    1.5120   -2.1050   -1.6980 C   0  0  0  0  0  3  0  0  0  0  0  0
    2.6200   -2.3650   -0.7220 C   0  0  0  0  0  3  0  0  0  0  0  0
    4.0140   -2.6110   -1.2180 C   0  0  0  0  0  0  0  0  0  0  0  0
    5.1230   -2.8710   -0.2420 O   0  0  0  0  0  1  0  0  0  0  0  0
    7.9130   -6.0700   -7.7050 C   0  0  0  0  0  1  0  0  0  0  0  0
    6.5700   -5.4080   -7.6220 O   0  0  0  0  0  0  0  0  0  0  0  0
    6.5260   -0.2120   -7.5880 O   0  0  0  0  0  0  0  0  0  0  0  0
    6.1080   -0.1090   -9.0250 C   0  0  0  0  0  1  0  0  0  0  0  0
  1  6  1  0  0  0  0
  2  1  2  0  0  0  0
  2  3  1  0  0  0  0
  3  4  2  0  0  0  0
  4  5  1  0  0  0  0
  5  7  1  0  0  0  0
  6  5  2  0  0  0  0
  7  8  1  0  0  0  0
  8 13  1  0  0  0  0
  9 10  1  0  0  0  0
  9  8  2  0  0  0  0
 10 11  2  0  0  0  0
 11 12  1  0  0  0  0
 13 12  2  0  0  0  0
 13 14  1  0  0  0  0
 15 16  1  0  0  0  0
 16  1  1  0  0  0  0
 17  3  1  0  0  0  0
 18 17  1  0  0  0  0
M  END
>  <MODEL>
       4

>  <REMARK>
  Name = 
  3 active torsions:
  status: ('A' for Active; 'I' for Inactive)
    1  A    between atoms: C_1  and  O_16
    2  A    between atoms: C_3  and  O_17
    3  A    between atoms: C_5  and  C_7
                            x       y       z     vdW  Elec       q    Type
                         _______ _______ _______ _____ _____    ______ ____

>  <TORSDO>
F 3

$$$$
=
 OpenBabel03122313433D

 21 22  0  0  0  0  0  0  0  0999 V2000
    0.0070   -1.4300   -1.2760 C   0  0  0  0  0  0  0  0  0  0  0  0
   -0.3350   -2.8760   -1.4840 O   0  0  0  0  0  0  0  0  0  0  0  0
    1.3110   -0.8880   -1.7820 N   0  0  0  0  0  0  0  0  0  0  0  0
    1.5360    0.0600   -1.6460 H   0  0  0  0  0  0  0  0  0  0  0  0
   -1.6790    0.5460   -1.3200 C   0  0  0  0  0  0  0  0  0  0  0  0
   -2.6400    1.4490   -0.6060 C   0  0  0  0  0  0  0  0  0  0  0  0
   -3.3650    2.5220   -1.3640 Br  0  0  0  0  0  0  0  0  0  0  0  0
   -2.8760    1.2800    0.8660 C   0  0  0  0  0  3  0  0  0  0  0  0
   -2.1510    0.2070    1.6230 C   0  0  0  0  0  0  0  0  0  0  0  0
   -2.3880    0.0380    3.0950 Br  0  0  0  0  0  0  0  0  0  0  0  0
   -1.1900   -0.6960    0.9090 C   0  0  0  0  0  3  0  0  0  0  0  0
   -0.9540   -0.5270   -0.5620 C   0  0  0  0  0  0  0  0  0  0  0  0
   -1.4420    0.7150   -2.7920 O   0  0  0  0  0  0  0  0  0  0  0  0
   -1.8950    1.3850   -3.2650 H   0  0  0  0  0  0  0  0  0  0  0  0
    2.2720   -1.7920   -2.4960 C   0  0  0  0  0  0  0  0  0  0  0  0
    2.0850   -2.0830   -3.9550 C   0  0  0  0  0  3  0  0  0  0  0  0
    3.0460   -2.9870   -4.6690 C   0  0  0  0  0  3  0  0  0  0  0  0
    4.1950   -3.5990   -3.9240 C   0  0  0  0  0  0  0  0  0  0  0  0
    5.1560   -4.5020   -4.6380 Br  0  0  0  0  0  0  0  0  0  0  0  0
    4.3830   -3.3070   -2.4650 C   0  0  0  0  0  3  0  0  0  0  0  0
    3.4210   -2.4040   -1.7510 C   0  0  0  0  0  3  0  0  0  0  0  0
  1 12  1  0  0  0  0
  2  1  2  0  0  0  0
  3  4  1  0  0  0  0
  3  1  1  0  0  0  0
  5  6  2  0  0  0  0
  5 12  1  0  0  0  0
  6  8  1  0  0  0  0
  7  6  1  0  0  0  0
  8  9  2  0  0  0  0
  9 10  1  0  0  0  0
 11  9  1  0  0  0  0
 12 11  2  0  0  0  0
 13  5  1  0  0  0  0
 14 13  1  0  0  0  0
 15  3  1  0  0  0  0
 15 21  1  0  0  0  0
 16 15  2  0  0  0  0
 17 16  1  0  0  0  0
 17 18  2  0  0  0  0
 18 20  1  0  0  0  0
 19 18  1  0  0  0  0
 20 21  2  0  0  0  0
M  END
>  <MODEL>
       2

>  <REMARK>
  Name = 
  3 active torsions:
  status: ('A' for Active; 'I' for Inactive)
    1  A    between atoms: C_1  and  C_13
    2  A    between atoms: N_3  and  C_15
    3  A    between atoms: O_5  and  C_6
                            x       y       z     vdW  Elec       q    Type
                         _______ _______ _______ _____ _____    ______ ____

>  <TORSDO>
F 3

$$$$
=
 OpenBabel03122313433D

 21 22  0  0  0  0  0  0  0  0999 V2000
    0.0070   -1.4300   -1.2580 C   0  0  0  0  0  0  0  0  0  0  0  0
   -0.3400   -2.8730   -1.4750 O   0  0  0  0  0  0  0  0  0  0  0  0
    1.3130   -0.8890   -1.7600 N   0  0  0  0  0  0  0  0  0  0  0  0
    1.5400    0.0580   -1.6180 H   0  0  0  0  0  0  0  0  0  0  0  0
   -1.6800    0.5460   -1.2930 C   0  0  0  0  0  0  0  0  0  0  0  0
   -2.6390    1.4480   -0.5750 C   0  0  0  0  0  0  0  0  0  0  0  0
   -3.3660    2.5220   -1.3280 Br  0  0  0  0  0  0  0  0  0  0  0  0
   -2.8710    1.2760    0.8970 C   0  0  0  0  0  3  0  0  0  0  0  0
   -2.1430    0.2020    1.6510 C   0  0  0  0  0  0  0  0  0  0  0  0
   -2.3750    0.0310    3.1230 Br  0  0  0  0  0  0  0  0  0  0  0  0
   -1.1840   -0.7000    0.9320 C   0  0  0  0  0  3  0  0  0  0  0  0
   -0.9530   -0.5280   -0.5400 C   0  0  0  0  0  0  0  0  0  0  0  0
   -1.4480    0.7180   -2.7650 O   0  0  0  0  0  0  0  0  0  0  0  0
   -1.9020    1.3880   -3.2360 H   0  0  0  0  0  0  0  0  0  0  0  0
    2.2720   -1.7910   -2.4790 C   0  0  0  0  0  0  0  0  0  0  0  0
    3.4240   -2.4020   -1.7390 C   0  0  0  0  0  3  0  0  0  0  0  0
    4.3830   -3.3040   -2.4570 C   0  0  0  0  0  3  0  0  0  0  0  0
    4.1900   -3.5960   -3.9160 C   0  0  0  0  0  0  0  0  0  0  0  0
    5.1490   -4.4980   -4.6340 Br  0  0  0  0  0  0  0  0  0  0  0  0
    3.0370   -2.9850   -4.6560 C   0  0  0  0  0  3  0  0  0  0  0  0
    2.0780   -2.0820   -3.9380 C   0  0  0  0  0  3  0  0  0  0  0  0
  1 12  1  0  0  0  0
  2  1  2  0  0  0  0
  3  4  1  0  0  0  0
  3  1  1  0  0  0  0
  5  6  2  0  0  0  0
  5 12  1  0  0  0  0
  6  8  1  0  0  0  0
  7  6  1  0  0  0  0
  8  9  2  0  0  0  0
  9 10  1  0  0  0  0
 11  9  1  0  0  0  0
 12 11  2  0  0  0  0
 13  5  1  0  0  0  0
 14 13  1  0  0  0  0
 15  3  1  0  0  0  0
 15 16  1  0  0  0  0
 17 16  2  0  0  0  0
 18 17  1  0  0  0  0
 19 18  1  0  0  0  0
 20 21  1  0  0  0  0
 20 18  2  0  0  0  0
 21 15  2  0  0  0  0
M  END
>  <MODEL>
       3

>  <REMARK>
  Name = 
  3 active torsions:
  status: ('A' for Active; 'I' for Inactive)
    1  A    between atoms: C_1  and  C_13
    2  A    between atoms: N_3  and  C_15
    3  A    between atoms: O_5  and  C_6
                            x       y       z     vdW  Elec       q    Type
                         _______ _______ _______ _____ _____    ______ ____

>  <TORSDO>
F 3

$$$$
=
 OpenBabel03122313433D

 21 22  0  0  0  0  0  0  0  0999 V2000
   -0.1240   -1.1010   -1.6190 C   0  0  0  0  0  0  0  0  0  0  0  0
   -0.3200   -2.5720   -1.4010 O   0  0  0  0  0  0  0  0  0  0  0  0
    1.0870   -0.6070   -2.3540 N   0  0  0  0  0  0  0  0  0  0  0  0
    1.2160    0.3590   -2.4970 H   0  0  0  0  0  0  0  0  0  0  0  0
   -1.5460   -0.1590    0.3400 C   0  0  0  0  0  0  0  0  0  0  0  0
   -2.5600    0.8180    0.8560 C   0  0  0  0  0  0  0  0  0  0  0  0
   -2.9670    0.7840    2.3000 Br  0  0  0  0  0  0  0  0  0  0  0  0
   -3.1680    1.8280   -0.0710 C   0  0  0  0  0  3  0  0  0  0  0  0
   -2.7610    1.8620   -1.5140 C   0  0  0  0  0  0  0  0  0  0  0  0
   -3.3690    2.8720   -2.4410 Br  0  0  0  0  0  0  0  0  0  0  0  0
   -1.7460    0.8850   -2.0300 C   0  0  0  0  0  3  0  0  0  0  0  0
   -1.1390   -0.1250   -1.1030 C   0  0  0  0  0  0  0  0  0  0  0  0
   -0.9380   -1.1690    1.2680 O   0  0  0  0  0  0  0  0  0  0  0  0
   -1.1920   -1.1900    2.1690 H   0  0  0  0  0  0  0  0  0  0  0  0
    2.1020   -1.5830   -2.8700 C   0  0  0  0  0  0  0  0  0  0  0  0
    2.1230   -1.9440   -4.3260 C   0  0  0  0  0  3  0  0  0  0  0  0
    3.1380   -2.9210   -4.8420 C   0  0  0  0  0  3  0  0  0  0  0  0
    4.1320   -3.5360   -3.9020 C   0  0  0  0  0  0  0  0  0  0  0  0
    5.1470   -4.5130   -4.4180 Br  0  0  0  0  0  0  0  0  0  0  0  0
    4.1110   -3.1750   -2.4460 C   0  0  0  0  0  3  0  0  0  0  0  0
    3.0960   -2.1990   -1.9300 C   0  0  0  0  0  3  0  0  0  0  0  0
  1  2  2  0  0  0  0
  1 12  1  0  0  0  0
  3  1  1  0  0  0  0
  4  3  1  0  0  0  0
  5  6  1  0  0  0  0
  5 13  1  0  0  0  0
  6  7  1  0  0  0  0
  8  6  2  0  0  0  0
  9  8  1  0  0  0  0
 10  9  1  0  0  0  0
 11  9  2  0  0  0  0
 11 12  1  0  0  0  0
 12  5  2  0  0  0  0
 13 14  1  0  0  0  0
 15  3  1  0  0  0  0
 15 21  1  0  0  0  0
 16 15  2  0  0  0  0
 17 16  1  0  0  0  0
 17 18  2  0  0  0  0
 18 20  1  0  0  0  0
 19 18  1  0  0  0  0
 20 21  2  0  0  0  0
M  END
>  <MODEL>
       4

>  <REMARK>
  Name = 
  3 active torsions:
  status: ('A' for Active; 'I' for Inactive)
    1  A    between atoms: C_1  and  C_13
    2  A    between atoms: N_3  and  C_15
    3  A    between atoms: O_5  and  C_6
                            x       y       z     vdW  Elec       q    Type
                         _______ _______ _______ _____ _____    ______ ____

>  <TORSDO>
F 3

$$$$
=
 OpenBabel03122313433D

 26 28  0  0  0  0  0  0  0  0999 V2000
    0.8740   -1.1600   -0.8890 C   0  0  0  0  0  0  0  0  0  0  0  0
    0.2870   -0.9230   -2.2490 N   0  0  0  0  0  0  0  0  0  0  0  0
    1.0870   -1.2460   -3.4770 C   0  0  0  0  0  3  0  0  0  0  0  0
    2.4720   -1.8040   -3.3450 C   0  0  0  0  0  0  0  0  0  0  0  0
    3.2720   -2.1260   -4.5730 C   0  0  0  0  0  3  0  0  0  0  0  0
    4.6570   -2.6840   -4.4400 C   0  0  0  0  0  0  0  0  0  0  0  0
    5.2440   -2.9210   -3.0800 C   0  0  0  0  0  0  0  0  0  0  0  0
    6.6300   -3.4790   -2.9480 O   0  0  0  0  0  0  0  0  0  0  0  0
    4.4450   -2.5990   -1.8520 N   0  0  0  0  0  0  0  0  0  0  0  0
    5.0320   -2.8350   -0.4920 C   0  0  0  0  0  1  0  0  0  0  0  0
    3.0590   -2.0400   -1.9850 C   0  0  0  0  0  0  0  0  0  0  0  0
    2.2600   -1.7180   -0.7570 N   0  0  0  0  0  0  0  0  0  0  0  0
    0.0750   -0.8380    0.3390 N   0  0  0  0  0  0  0  0  0  0  0  0
    0.4580   -0.9980    1.2310 H   0  0  0  0  0  0  0  0  0  0  0  0
    5.4570   -3.0060   -5.6680 C   0  0  0  0  0  0  0  0  0  0  0  0
    5.8980   -1.9050   -6.5860 C   0  0  0  0  0  0  0  0  0  0  0  0
    5.5400   -0.4820   -6.2760 Cl  0  0  0  0  0  0  0  0  0  0  0  0
    6.6970   -2.2270   -7.8140 C   0  0  0  0  0  3  0  0  0  0  0  0
    7.0550   -3.6510   -8.1240 C   0  0  0  0  0  3  0  0  0  0  0  0
    6.6140   -4.7520   -7.2060 C   0  0  0  0  0  3  0  0  0  0  0  0
    5.8150   -4.4300   -5.9780 C   0  0  0  0  0  0  0  0  0  0  0  0
    5.3740   -5.5310   -5.0600 Cl  0  0  0  0  0  0  0  0  0  0  0  0
   -1.3080   -0.2710    0.2060 C   0  0  0  0  0  2  0  0  0  0  0  0
   -2.3880   -0.6980    1.1550 C   0  0  0  0  0  2  0  0  0  0  0  0
   -2.1170   -0.4870    3.7310 C   0  0  0  0  0  1  0  0  0  0  0  0
   -2.0260   -1.3070    2.4780 C   0  0  0  0  0  2  0  0  0  0  0  0
  1 12  1  0  0  0  0
  1 13  1  0  0  0  0
  2  1  2  0  0  0  0
  3  4  2  0  0  0  0
  3  2  1  0  0  0  0
  4 11  1  0  0  0  0
  5  6  2  0  0  0  0
  5  4  1  0  0  0  0
  6  7  1  0  0  0  0
  7  8  2  0  0  0  0
  7  9  1  0  0  0  0
  9 10  1  0  0  0  0
 11  9  1  0  0  0  0
 11 12  2  0  0  0  0
 13 14  1  0  0  0  0
 15  6  1  0  0  0  0
 16 17  1  0  0  0  0
 16 15  2  0  0  0  0
 18 16  1  0  0  0  0
 19 18  2  0  0  0  0
 19 20  1  0  0  0  0
 20 21  2  0  0  0  0
 21 15  1  0  0  0  0
 21 22  1  0  0  0  0
 23 13  1  0  0  0  0
 23 24  1  0  0  0  0
 24 26  1  0  0  0  0
 26 25  1  0  0  0  0
M  END
>  <MODEL>
       2

>  <REMARK>
  Name = 
  4 active torsions:
  status: ('A' for Active; 'I' for Inactive)
    1  A    between atoms: C_6  and  C_13
    2  A    between atoms: N_21  and  C_23
    3  A    between atoms: C_23  and  C_24
    4  A    between atoms: C_24  and  C_26
                            x       y       z     vdW  Elec       q    Type
                         _______ _______ _______ _____ _____    ______ ____

>  <TORSDO>
F 4

$$$$
=
 OpenBabel03122313433D

 26 28  0  0  0  0  0  0  0  0999 V2000
    2.2410   -1.6450   -0.6950 C   0  0  0  0  0  0  0  0  0  0  0  0
    3.4420   -2.3040   -0.0850 N   0  0  0  0  0  0  0  0  0  0  0  0
    4.5060   -2.8880   -0.9670 C   0  0  0  0  0  3  0  0  0  0  0  0
    4.3680   -2.8120   -2.4590 C   0  0  0  0  0  0  0  0  0  0  0  0
    5.4320   -3.3950   -3.3410 C   0  0  0  0  0  3  0  0  0  0  0  0
    5.2940   -3.3190   -4.8320 C   0  0  0  0  0  0  0  0  0  0  0  0
    4.0930   -2.6600   -5.4420 C   0  0  0  0  0  0  0  0  0  0  0  0
    3.9550   -2.5840   -6.9340 O   0  0  0  0  0  0  0  0  0  0  0  0
    3.0290   -2.0770   -4.5600 N   0  0  0  0  0  0  0  0  0  0  0  0
    1.8270   -1.4180   -5.1700 C   0  0  0  0  0  1  0  0  0  0  0  0
    3.1670   -2.1530   -3.0680 C   0  0  0  0  0  0  0  0  0  0  0  0
    2.1030   -1.5700   -2.1860 N   0  0  0  0  0  0  0  0  0  0  0  0
    1.1770   -1.0620    0.1880 N   0  0  0  0  0  0  0  0  0  0  0  0
    1.4270   -0.5870    1.0120 H   0  0  0  0  0  0  0  0  0  0  0  0
    6.3580   -3.9020   -5.7150 C   0  0  0  0  0  0  0  0  0  0  0  0
    6.4550   -5.3890   -5.8900 C   0  0  0  0  0  0  0  0  0  0  0  0
    5.4880   -6.2920   -5.1840 Cl  0  0  0  0  0  0  0  0  0  0  0  0
    7.5190   -5.9720   -6.7720 C   0  0  0  0  0  3  0  0  0  0  0  0
    8.4860   -5.0690   -7.4790 C   0  0  0  0  0  3  0  0  0  0  0  0
    8.3890   -3.5820   -7.3030 C   0  0  0  0  0  3  0  0  0  0  0  0
    7.3250   -2.9990   -6.4210 C   0  0  0  0  0  0  0  0  0  0  0  0
    7.2280   -1.5120   -6.2450 Cl  0  0  0  0  0  0  0  0  0  0  0  0
   -0.2690   -1.2040   -0.1870 C   0  0  0  0  0  2  0  0  0  0  0  0
   -1.0400   -0.0100   -0.6660 C   0  0  0  0  0  3  0  0  0  0  0  0
   -2.1980    1.2960   -2.5900 C   0  0  0  0  0  1  0  0  0  0  0  0
   -1.3970    0.1190   -2.1170 C   0  0  0  0  0  3  0  0  0  0  0  0
  1  2  2  0  0  0  0
  1 13  1  0  0  0  0
  3  2  1  0  0  0  0
  4  3  2  0  0  0  0
  5  4  1  0  0  0  0
  6  5  2  0  0  0  0
  7  6  1  0  0  0  0
  7  9  1  0  0  0  0
  8  7  2  0  0  0  0
  9 11  1  0  0  0  0
 10  9  1  0  0  0  0
 11  4  1  0  0  0  0
 11 12  2  0  0  0  0
 12  1  1  0  0  0  0
 13 14  1  0  0  0  0
 15  6  1  0  0  0  0
 16 15  1  0  0  0  0
 16 17  1  0  0  0  0
 18 16  2  0  0  0  0
 19 20  2  0  0  0  0
 19 18  1  0  0  0  0
 20 21  1  0  0  0  0
 21 22  1  0  0  0  0
 21 15  2  0  0  0  0
 23 13  1  0  0  0  0
 24 23  1  0  0  0  0
 25 26  1  0  0  0  0
 26 24  2  0  0  0  0
M  END
>  <MODEL>
       3

>  <REMARK>
  Name = 
  4 active torsions:
  status: ('A' for Active; 'I' for Inactive)
    1  A    between atoms: C_6  and  C_13
    2  A    between atoms: N_21  and  C_23
    3  A    between atoms: C_23  and  C_24
    4  A    between atoms: C_24  and  C_26
                            x       y       z     vdW  Elec       q    Type
                         _______ _______ _______ _____ _____    ______ ____

>  <TORSDO>
F 4

$$$$
=
 OpenBabel03122313433D

 26 28  0  0  0  0  0  0  0  0999 V2000
    0.7860   -1.0640   -0.9300 C   0  0  0  0  0  0  0  0  0  0  0  0
    0.2270   -0.8290   -2.3020 N   0  0  0  0  0  0  0  0  0  0  0  0
    1.0450   -1.1660   -3.5130 C   0  0  0  0  0  3  0  0  0  0  0  0
    2.4220   -1.7380   -3.3530 C   0  0  0  0  0  0  0  0  0  0  0  0
    3.2410   -2.0740   -4.5640 C   0  0  0  0  0  3  0  0  0  0  0  0
    4.6180   -2.6460   -4.4030 C   0  0  0  0  0  0  0  0  0  0  0  0
    5.1770   -2.8810   -3.0310 C   0  0  0  0  0  0  0  0  0  0  0  0
    6.5550   -3.4530   -2.8710 O   0  0  0  0  0  0  0  0  0  0  0  0
    4.3590   -2.5450   -1.8200 N   0  0  0  0  0  0  0  0  0  0  0  0
    4.9180   -2.7800   -0.4480 C   0  0  0  0  0  1  0  0  0  0  0  0
    2.9820   -1.9730   -1.9810 C   0  0  0  0  0  0  0  0  0  0  0  0
    2.1630   -1.6360   -0.7700 N   0  0  0  0  0  0  0  0  0  0  0  0
   -0.0320   -0.7270    0.2810 N   0  0  0  0  0  0  0  0  0  0  0  0
    0.3880   -0.7160    1.1710 H   0  0  0  0  0  0  0  0  0  0  0  0
    5.4360   -2.9830   -5.6150 C   0  0  0  0  0  0  0  0  0  0  0  0
    5.8040   -4.4090   -5.8990 C   0  0  0  0  0  0  0  0  0  0  0  0
    5.3540   -5.4990   -4.9710 Cl  0  0  0  0  0  0  0  0  0  0  0  0
    6.6220   -4.7460   -7.1100 C   0  0  0  0  0  3  0  0  0  0  0  0
    7.0730   -3.6560   -8.0370 C   0  0  0  0  0  3  0  0  0  0  0  0
    6.7050   -2.2300   -7.7530 C   0  0  0  0  0  3  0  0  0  0  0  0
    5.8870   -1.8930   -6.5420 C   0  0  0  0  0  0  0  0  0  0  0  0
    5.5190   -0.4670   -6.2580 Cl  0  0  0  0  0  0  0  0  0  0  0  0
   -1.4900   -0.4080    0.1360 C   0  0  0  0  0  2  0  0  0  0  0  0
   -2.0100    0.9340    0.5590 C   0  0  0  0  0  3  0  0  0  0  0  0
   -2.4500    1.5650   -1.9230 C   0  0  0  0  0  1  0  0  0  0  0  0
   -2.5920    1.8680   -0.4610 C   0  0  0  0  0  3  0  0  0  0  0  0
  1 12  1  0  0  0  0
  1 13  1  0  0  0  0
  2  1  2  0  0  0  0
  3  4  2  0  0  0  0
  3  2  1  0  0  0  0
  4 11  1  0  0  0  0
  5  6  2  0  0  0  0
  5  4  1  0  0  0  0
  6  7  1  0  0  0  0
  7  8  2  0  0  0  0
  7  9  1  0  0  0  0
  9 10  1  0  0  0  0
 11  9  1  0  0  0  0
 11 12  2  0  0  0  0
 13 14  1  0  0  0  0
 15  6  1  0  0  0  0
 16 15  1  0  0  0  0
 16 17  1  0  0  0  0
 18 16  2  0  0  0  0
 19 20  2  0  0  0  0
 19 18  1  0  0  0  0
 20 21  1  0  0  0  0
 21 22  1  0  0  0  0
 21 15  2  0  0  0  0
 23 13  1  0  0  0  0
 23 24  1  0  0  0  0
 25 26  1  0  0  0  0
 26 24  2  0  0  0  0
M  END
>  <MODEL>
       4

>  <REMARK>
  Name = 
  4 active torsions:
  status: ('A' for Active; 'I' for Inactive)
    1  A    between atoms: C_6  and  C_13
    2  A    between atoms: N_21  and  C_23
    3  A    between atoms: C_23  and  C_24
    4  A    between atoms: C_24  and  C_26
                            x       y       z     vdW  Elec       q    Type
                         _______ _______ _______ _____ _____    ______ ____

>  <TORSDO>
F 4

$$$$
=
 OpenBabel03122313433D

 29 31  0  0  0  0  0  0  0  0999 V2000
   -5.3570    1.6410    3.1010 C   0  0  0  0  0  0  0  0  0  0  0  0
   -5.2460    2.2620    1.7400 C   0  0  0  0  0  3  0  0  0  0  0  0
   -4.1250    1.8660    0.8250 C   0  0  0  0  0  0  0  0  0  0  0  0
   -4.0140    2.4870   -0.5370 N   0  0  0  0  0  0  0  0  0  0  0  0
   -2.8930    2.0910   -1.4520 C   0  0  0  0  0  0  0  0  0  0  0  0
   -2.7820    2.7120   -2.8130 Cl  0  0  0  0  0  0  0  0  0  0  0  0
   -1.8840    1.0750   -1.0060 N   0  0  0  0  0  0  0  0  0  0  0  0
   -1.9950    0.4550    0.3550 C   0  0  0  0  0  0  0  0  0  0  0  0
   -3.1150    0.8510    1.2700 C   0  0  0  0  0  0  0  0  0  0  0  0
   -3.2260    0.2300    2.6320 C   0  0  0  0  0  3  0  0  0  0  0  0
   -4.3470    0.6260    3.5470 C   0  0  0  0  0  0  0  0  0  0  0  0
   -7.7910    1.3150    3.9490 C   0  0  0  0  0  1  0  0  0  0  0  0
   -6.4770    2.0370    4.0160 O   0  0  0  0  0  0  0  0  0  0  0  0
   -0.9850   -0.5610    0.8010 N   0  0  0  0  0  0  0  0  0  0  0  0
   -1.0090   -0.9060    1.7220 H   0  0  0  0  0  0  0  0  0  0  0  0
    0.0600   -1.0490   -0.1570 C   0  0  0  0  0  0  0  0  0  0  0  0
    1.4760   -0.5690   -0.0310 C   0  0  0  0  0  3  0  0  0  0  0  0
    2.5220   -1.0580   -0.9890 C   0  0  0  0  0  3  0  0  0  0  0  0
    2.1520   -2.0270   -2.0730 C   0  0  0  0  0  0  0  0  0  0  0  0
    0.7360   -2.5070   -2.1990 C   0  0  0  0  0  3  0  0  0  0  0  0
   -0.3090   -2.0180   -1.2410 C   0  0  0  0  0  3  0  0  0  0  0  0
    3.1970   -2.5160   -3.0310 S   0  0  0  0  0  0  0  0  0  0  0  0
    4.2410   -2.3750   -1.9630 O   0  0  0  0  0  0  0  0  0  0  0  0
    2.1530   -2.6570   -4.0990 O   0  0  0  0  0  0  0  0  0  0  0  0
    4.2430   -3.0050   -3.9890 N   0  0  0  0  0  0  0  0  0  0  0  0
    3.8370   -3.7440   -5.2290 C   0  0  0  0  0  1  0  0  0  0  0  0
    5.6950   -2.7540   -3.7070 C   0  0  0  0  0  1  0  0  0  0  0  0
   -4.4580    0.0050    4.9080 O   0  0  0  0  0  0  0  0  0  0  0  0
   -5.3250   -1.2010    5.1140 C   0  0  0  0  0  1  0  0  0  0  0  0
  1 11  1  0  0  0  0
  1 13  1  0  0  0  0
  2  1  2  0  0  0  0
  3  9  2  0  0  0  0
  3  2  1  0  0  0  0
  4  3  1  0  0  0  0
  5  7  1  0  0  0  0
  5  4  2  0  0  0  0
  6  5  1  0  0  0  0
  7  8  2  0  0  0  0
  8 14  1  0  0  0  0
  8  9  1  0  0  0  0
  9 10  1  0  0  0  0
 10 11  2  0  0  0  0
 11 28  1  0  0  0  0
 12 13  1  0  0  0  0
 14 15  1  0  0  0  0
 16 17  1  0  0  0  0
 16 14  1  0  0  0  0
 18 17  2  0  0  0  0
 19 18  1  0  0  0  0
 20 19  2  0  0  0  0
 20 21  1  0  0  0  0
 21 16  2  0  0  0  0
 22 19  1  0  0  0  0
 22 23  2  0  0  0  0
 24 22  2  0  0  0  0
 25 27  1  0  0  0  0
 25 22  1  0  0  0  0
 26 25  1  0  0  0  0
 28 29  1  0  0  0  0
M  END
>  <MODEL>
       2

>  <REMARK>
  Name = 
  6 active torsions:
  status: ('A' for Active; 'I' for Inactive)
    1  A    between atoms: C_1  and  O_13
    2  A    between atoms: C_8  and  N_14
    3  A    between atoms: C_11  and  O_28
    4  A    between atoms: N_14  and  C_16
    5  A    between atoms: C_19  and  S_22
    6  A    between atoms: S_22  and  N_25
                            x       y       z     vdW  Elec       q    Type
                         _______ _______ _______ _____ _____    ______ ____

>  <TORSDO>
F 6

$$$$
=
 OpenBabel03122313433D

 29 31  0  0  0  0  0  0  0  0999 V2000
    6.2820   -3.0790   -5.3820 C   0  0  0  0  0  0  0  0  0  0  0  0
    6.3550   -3.4570   -3.9320 C   0  0  0  0  0  3  0  0  0  0  0  0
    5.2160   -3.1290   -3.0130 C   0  0  0  0  0  0  0  0  0  0  0  0
    5.2890   -3.5070   -1.5630 N   0  0  0  0  0  0  0  0  0  0  0  0
    4.1500   -3.1790   -0.6450 C   0  0  0  0  0  0  0  0  0  0  0  0
    4.2230   -3.5570    0.8050 Cl  0  0  0  0  0  0  0  0  0  0  0  0
    2.9380   -2.4730   -1.1760 N   0  0  0  0  0  0  0  0  0  0  0  0
    2.8650   -2.0950   -2.6250 C   0  0  0  0  0  0  0  0  0  0  0  0
    4.0040   -2.4230   -3.5440 C   0  0  0  0  0  0  0  0  0  0  0  0
    3.9310   -2.0450   -4.9940 C   0  0  0  0  0  3  0  0  0  0  0  0
    5.0700   -2.3730   -5.9130 C   0  0  0  0  0  0  0  0  0  0  0  0
    8.0480   -4.7700   -6.2620 C   0  0  0  0  0  1  0  0  0  0  0  0
    7.4220   -3.4080   -6.3010 O   0  0  0  0  0  0  0  0  0  0  0  0
    1.6530   -1.3880   -3.1560 N   0  0  0  0  0  0  0  0  0  0  0  0
    1.5480   -1.2520   -4.1250 H   0  0  0  0  0  0  0  0  0  0  0  0
    0.6000   -0.8910   -2.2100 C   0  0  0  0  0  0  0  0  0  0  0  0
    0.7370   -1.1400   -0.7370 C   0  0  0  0  0  3  0  0  0  0  0  0
   -0.3150   -0.6430    0.2080 C   0  0  0  0  0  3  0  0  0  0  0  0
   -1.5040    0.1050   -0.3180 C   0  0  0  0  0  0  0  0  0  0  0  0
   -1.6410    0.3550   -1.7910 C   0  0  0  0  0  3  0  0  0  0  0  0
   -0.5890   -0.1430   -2.7370 C   0  0  0  0  0  3  0  0  0  0  0  0
   -2.5570    0.6030    0.6280 S   0  0  0  0  0  0  0  0  0  0  0  0
   -2.6440   -0.7600    1.2480 O   0  0  0  0  0  0  0  0  0  0  0  0
   -2.4700    1.9660    0.0070 O   0  0  0  0  0  0  0  0  0  0  0  0
   -3.6090    1.1000    1.5730 N   0  0  0  0  0  0  0  0  0  0  0  0
   -3.5250    0.7640    3.0330 C   0  0  0  0  0  1  0  0  0  0  0  0
   -4.7450    1.9350    1.0600 C   0  0  0  0  0  1  0  0  0  0  0  0
    4.9970   -1.9950   -7.3630 O   0  0  0  0  0  0  0  0  0  0  0  0
    5.7410   -0.7920   -7.8620 C   0  0  0  0  0  1  0  0  0  0  0  0
  1  2  1  0  0  0  0
  2  3  2  0  0  0  0
  3  4  1  0  0  0  0
  4  5  2  0  0  0  0
  5  6  1  0  0  0  0
  7  5  1  0  0  0  0
  8  7  2  0  0  0  0
  9  3  1  0  0  0  0
  9  8  1  0  0  0  0
 10  9  2  0  0  0  0
 11  1  2  0  0  0  0
 11 10  1  0  0  0  0
 13 12  1  0  0  0  0
 13  1  1  0  0  0  0
 14  8  1  0  0  0  0
 14 16  1  0  0  0  0
 15 14  1  0  0  0  0
 16 17  1  0  0  0  0
 17 18  2  0  0  0  0
 19 18  1  0  0  0  0
 19 22  1  0  0  0  0
 20 19  2  0  0  0  0
 21 16  2  0  0  0  0
 21 20  1  0  0  0  0
 22 23  2  0  0  0  0
 22 25  1  0  0  0  0
 24 22  2  0  0  0  0
 25 26  1  0  0  0  0
 27 25  1  0  0  0  0
 28 11  1  0  0  0  0
 29 28  1  0  0  0  0
M  END
>  <MODEL>
       3

>  <REMARK>
  Name = 
  6 active torsions:
  status: ('A' for Active; 'I' for Inactive)
    1  A    between atoms: C_1  and  O_13
    2  A    between atoms: C_8  and  N_14
    3  A    between atoms: C_11  and  O_28
    4  A    between atoms: N_14  and  C_16
    5  A    between atoms: C_19  and  S_22
    6  A    between atoms: S_22  and  N_25
                            x       y       z     vdW  Elec       q    Type
                         _______ _______ _______ _____ _____    ______ ____

>  <TORSDO>
F 6

$$$$
=
 OpenBabel03122313433D

 29 31  0  0  0  0  0  0  0  0999 V2000
   -1.3600    0.1290   -0.5340 C   0  0  0  0  0  0  0  0  0  0  0  0
   -0.2320   -0.5100    0.2200 C   0  0  0  0  0  3  0  0  0  0  0  0
    0.9210   -1.1140   -0.5250 C   0  0  0  0  0  0  0  0  0  0  0  0
    2.0500   -1.7530    0.2290 N   0  0  0  0  0  0  0  0  0  0  0  0
    3.2030   -2.3570   -0.5170 C   0  0  0  0  0  0  0  0  0  0  0  0
    4.3310   -2.9960    0.2370 Cl  0  0  0  0  0  0  0  0  0  0  0  0
    3.2280   -2.3210   -2.0160 N   0  0  0  0  0  0  0  0  0  0  0  0
    2.1000   -1.6810   -2.7700 C   0  0  0  0  0  0  0  0  0  0  0  0
    0.9470   -1.0780   -2.0250 C   0  0  0  0  0  0  0  0  0  0  0  0
   -0.1810   -0.4380   -2.7790 C   0  0  0  0  0  3  0  0  0  0  0  0
   -1.3350    0.1650   -2.0330 C   0  0  0  0  0  0  0  0  0  0  0  0
   -3.2120   -0.0560    1.2790 C   0  0  0  0  0  1  0  0  0  0  0  0
   -2.5130    0.7330    0.2110 O   0  0  0  0  0  0  0  0  0  0  0  0
    2.1260   -1.6450   -4.2690 N   0  0  0  0  0  0  0  0  0  0  0  0
    1.3660   -1.2620   -4.7650 H   0  0  0  0  0  0  0  0  0  0  0  0
    3.3080   -2.1920   -5.0130 C   0  0  0  0  0  0  0  0  0  0  0  0
    3.3980   -3.6620   -5.3010 C   0  0  0  0  0  3  0  0  0  0  0  0
    4.5810   -4.2090   -6.0440 C   0  0  0  0  0  3  0  0  0  0  0  0
    5.6730   -3.2860   -6.5000 C   0  0  0  0  0  0  0  0  0  0  0  0
    5.5820   -1.8170   -6.2120 C   0  0  0  0  0  3  0  0  0  0  0  0
    4.3990   -1.2700   -5.4690 C   0  0  0  0  0  3  0  0  0  0  0  0
    6.8550   -3.8330   -7.2430 S   0  0  0  0  0  0  0  0  0  0  0  0
    6.5910   -2.8760   -8.3680 O   0  0  0  0  0  0  0  0  0  0  0  0
    7.1190   -4.7910   -6.1190 O   0  0  0  0  0  0  0  0  0  0  0  0
    8.0370   -4.3810   -7.9870 N   0  0  0  0  0  0  0  0  0  0  0  0
    8.4880   -3.7310   -9.2610 C   0  0  0  0  0  1  0  0  0  0  0  0
    8.7690   -5.5780   -7.4560 C   0  0  0  0  0  1  0  0  0  0  0  0
   -2.4630    0.8050   -2.7870 O   0  0  0  0  0  0  0  0  0  0  0  0
   -2.6180    2.2970   -2.7820 C   0  0  0  0  0  1  0  0  0  0  0  0
  1 13  1  0  0  0  0
  1  2  1  0  0  0  0
  3  2  2  0  0  0  0
  3  4  1  0  0  0  0
  5  4  2  0  0  0  0
  5  6  1  0  0  0  0
  7  5  1  0  0  0  0
  8  9  1  0  0  0  0
  8  7  2  0  0  0  0
  9  3  1  0  0  0  0
 10 11  1  0  0  0  0
 10  9  2  0  0  0  0
 11  1  2  0  0  0  0
 13 12  1  0  0  0  0
 14  8  1  0  0  0  0
 15 14  1  0  0  0  0
 16 14  1  0  0  0  0
 17 16  1  0  0  0  0
 18 17  2  0  0  0  0
 19 20  2  0  0  0  0
 19 18  1  0  0  0  0
 20 21  1  0  0  0  0
 21 16  2  0  0  0  0
 22 19  1  0  0  0  0
 22 24  2  0  0  0  0
 23 22  2  0  0  0  0
 25 27  1  0  0  0  0
 25 22  1  0  0  0  0
 26 25  1  0  0  0  0
 28 29  1  0  0  0  0
 28 11  1  0  0  0  0
M  END
>  <MODEL>
       4

>  <REMARK>
  Name = 
  6 active torsions:
  status: ('A' for Active; 'I' for Inactive)
    1  A    between atoms: C_1  and  O_13
    2  A    between atoms: C_8  and  N_14
    3  A    between atoms: C_11  and  O_28
    4  A    between atoms: N_14  and  C_16
    5  A    between atoms: C_19  and  S_22
    6  A    between atoms: S_22  and  N_25
                            x       y       z     vdW  Elec       q    Type
                         _______ _______ _______ _____ _____    ______ ____

>  <TORSDO>
F 6

$$$$
=
 OpenBabel03122313433D

 12 12  0  0  0  0  0  0  0  0999 V2000
    5.9210   -1.5360   -7.5830 C   0  0  0  0  0  0  0  0  0  0  0  0
    5.1590   -1.2410   -6.3250 C   0  0  0  0  0  3  0  0  0  0  0  0
    5.1640   -2.2290   -5.1960 C   0  0  0  0  0  0  0  0  0  0  0  0
    6.1810   -2.3050   -4.0960 C   0  0  0  0  0  3  0  0  0  0  0  0
    5.7990   -3.4360   -3.1890 C   0  0  0  0  0  3  0  0  0  0  0  0
    4.5450   -4.0590   -3.7280 C   0  0  0  0  0  3  0  0  0  0  0  0
    4.1530   -3.3130   -4.9690 N   0  0  0  0  0  0  0  0  0  0  0  0
    3.3700   -3.5020   -5.5340 H   0  0  0  0  0  0  0  0  0  0  0  0
    5.9110    0.4390   -9.8410 N   0  0  0  0  0  1  0  0  0  0  0  0
    5.9160   -0.5490   -8.7120 C   0  0  0  0  0  2  0  0  0  0  0  0
    6.6890   -2.8180   -7.7120 C   0  0  0  0  0  2  0  0  0  0  0  0
    7.4570   -4.1010   -7.8400 N   0  0  0  0  0  1  0  0  0  0  0  0
  1  2  2  0  0  0  0
  2  3  1  0  0  0  0
  3  7  1  0  0  0  0
  3  4  2  0  0  0  0
  4  5  1  0  0  0  0
  6  5  2  0  0  0  0
  7  6  1  0  0  0  0
  8  7  1  0  0  0  0
  9 10  1  0  0  0  0
 10  1  1  0  0  0  0
 11  1  1  0  0  0  0
 12 11  1  0  0  0  0
M  END
>  <MODEL>
       2

>  <REMARK>
  Name = 
  3 active torsions:
  status: ('A' for Active; 'I' for Inactive)
    1  A    between atoms: C_1  and  C_10
    2  A    between atoms: C_1  and  C_11
    3  A    between atoms: C_2  and  C_3
                            x       y       z     vdW  Elec       q    Type
                         _______ _______ _______ _____ _____    ______ ____

>  <TORSDO>
F 3

$$$$
=
 OpenBabel03122313433D

 12 12  0  0  0  0  0  0  0  0999 V2000
    5.7170   -2.5910   -6.2430 C   0  0  0  0  0  0  0  0  0  0  0  0
    5.3800   -1.1490   -6.4840 C   0  0  0  0  0  3  0  0  0  0  0  0
    5.9670   -0.4280   -7.6610 C   0  0  0  0  0  0  0  0  0  0  0  0
    7.1750    0.4600   -7.6380 C   0  0  0  0  0  3  0  0  0  0  0  0
    7.4040    0.9690   -9.0300 C   0  0  0  0  0  3  0  0  0  0  0  0
    6.3370    0.3940   -9.9140 C   0  0  0  0  0  3  0  0  0  0  0  0
    5.4490   -0.4690   -9.0680 N   0  0  0  0  0  0  0  0  0  0  0  0
    4.6640   -0.9740   -9.3810 H   0  0  0  0  0  0  0  0  0  0  0  0
    4.5430   -4.0330   -3.8890 N   0  0  0  0  0  1  0  0  0  0  0  0
    5.1300   -3.3120   -5.0660 C   0  0  0  0  0  2  0  0  0  0  0  0
    6.6420   -3.3120   -7.1790 C   0  0  0  0  0  2  0  0  0  0  0  0
    7.5660   -4.0320   -8.1150 N   0  0  0  0  0  1  0  0  0  0  0  0
  1 10  1  0  0  0  0
  2  1  2  0  0  0  0
  3  4  2  0  0  0  0
  3  2  1  0  0  0  0
  5  4  1  0  0  0  0
  6  7  1  0  0  0  0
  6  5  2  0  0  0  0
  7  3  1  0  0  0  0
  8  7  1  0  0  0  0
 10  9  1  0  0  0  0
 11  1  1  0  0  0  0
 12 11  1  0  0  0  0
M  END
>  <MODEL>
       3

>  <REMARK>
  Name = 
  3 active torsions:
  status: ('A' for Active; 'I' for Inactive)
    1  A    between atoms: C_1  and  C_10
    2  A    between atoms: C_1  and  C_11
    3  A    between atoms: C_2  and  C_3
                            x       y       z     vdW  Elec       q    Type
                         _______ _______ _______ _____ _____    ______ ____

>  <TORSDO>
F 3

$$$$
=
 OpenBabel03122313433D

 12 12  0  0  0  0  0  0  0  0999 V2000
    4.7190   -3.4060   -3.7100 C   0  0  0  0  0  0  0  0  0  0  0  0
    6.1890   -3.6380   -3.8990 C   0  0  0  0  0  3  0  0  0  0  0  0
    6.6930   -4.2640   -5.1650 C   0  0  0  0  0  0  0  0  0  0  0  0
    6.5340   -5.7020   -5.5610 C   0  0  0  0  0  3  0  0  0  0  0  0
    7.1880   -5.8890   -6.8980 C   0  0  0  0  0  3  0  0  0  0  0  0
    7.7510   -4.5670   -7.3280 C   0  0  0  0  0  3  0  0  0  0  0  0
    7.4450   -3.5630   -6.2570 N   0  0  0  0  0  0  0  0  0  0  0  0
    7.6940   -2.6110   -6.2680 H   0  0  0  0  0  0  0  0  0  0  0  0
    3.7100   -2.1530   -1.1780 N   0  0  0  0  0  1  0  0  0  0  0  0
    4.2140   -2.7790   -2.4440 C   0  0  0  0  0  2  0  0  0  0  0  0
    3.7530   -3.8000   -4.7880 C   0  0  0  0  0  2  0  0  0  0  0  0
    2.7880   -4.1950   -5.8660 N   0  0  0  0  0  1  0  0  0  0  0  0
  1 10  1  0  0  0  0
  2  1  2  0  0  0  0
  3  2  1  0  0  0  0
  4  3  2  0  0  0  0
  5  4  1  0  0  0  0
  6  5  2  0  0  0  0
  6  7  1  0  0  0  0
  7  3  1  0  0  0  0
  8  7  1  0  0  0  0
 10  9  1  0  0  0  0
 11  1  1  0  0  0  0
 12 11  1  0  0  0  0
M  END
>  <MODEL>
       4

>  <REMARK>
  Name = 
  3 active torsions:
  status: ('A' for Active; 'I' for Inactive)
    1  A    between atoms: C_1  and  C_10
    2  A    between atoms: C_1  and  C_11
    3  A    between atoms: C_2  and  C_3
                            x       y       z     vdW  Elec       q    Type
                         _______ _______ _______ _____ _____    ______ ____

>  <TORSDO>
F 3

$$$$
